*SPEF "IEEE 1481.1999"
*DESIGN "phoeniX"
*DATE "14:23:55 Thursday August 31, 2023"
*VENDOR "unknown"
*PROGRAM "qrouter"
*VERSION "unknown"
*DESIGN_FLOW "qflow"
*DIVIDER /
*DELIMITER :
*BUS_DELIMITER <>
*T_UNIT 1 PS
*C_UNIT 1 FF
*R_UNIT 1 OHM
*L_UNIT 1 HENRY

*NAME_MAP
*1 _2705_
*2 NOR3X1_56
*3 NAND3X1_106
*4 AND2X2_53
*5 NAND2X1_492
*6 AND2X2_60
*7 OAI21X1_665
*8 AOI21X1_154
*9 AND2X2_57
*10 AND2X2_63
*11 NAND2X1_507
*12 OAI21X1_748
*13 OAI21X1_717
*14 OAI21X1_770
*15 OAI21X1_759
*16 NAND2X1_361
*17 AND2X2_68
*18 _2907_
*19 INVX8_13
*20 OAI21X1_848
*21 OAI21X1_844
*22 OAI21X1_839
*23 OAI21X1_828
*24 NAND2X1_658
*25 NAND2X1_650
*26 OAI21X1_837
*27 OAI21X1_820
*28 NAND2X1_643
*29 OAI21X1_853
*30 OAI21X1_855
*31 NAND2X1_695
*32 OAI21X1_860
*33 OAI21X1_867
*34 NAND2X1_683
*35 _2703_
*36 NOR2X1_181
*37 NOR2X1_193
*38 OAI22X1_39
*39 OAI22X1_18
*40 OAI22X1_15
*41 OAI22X1_29
*42 OAI22X1_36
*43 OAI22X1_32
*44 OAI22X1_26
*45 OAI22X1_20
*46 OAI22X1_41
*47 OAI22X1_43
*48 OAI21X1_729
*49 OAI22X1_23
*50 NAND3X1_104
*51 _2718_
*52 OR2X2_24
*53 OAI21X1_374
*54 AOI22X1_102
*55 AOI22X1_78
*56 AOI21X1_70
*57 AOI22X1_100
*58 AOI22X1_101
*59 AOI22X1_86
*60 AOI22X1_82
*61 AOI22X1_103
*62 AOI22X1_109
*63 AOI22X1_108
*64 AOI22X1_104
*65 AOI22X1_105
*66 AOI22X1_97
*67 _2885_
*68 INVX8_11
*69 AOI22X1_78
*70 AOI21X1_72
*71 AOI21X1_70
*72 NAND3X1_117
*73 NAND3X1_144
*74 NAND3X1_147
*75 NAND3X1_155
*76 OAI21X1_658
*77 OAI21X1_710
*78 NAND3X1_175
*79 NAND3X1_170
*80 NAND3X1_130
*81 AOI22X1_92
*82 OAI21X1_574
*83 _2892_
*84 INVX8_12
*85 OAI22X1_43
*86 OAI21X1_749
*87 OAI21X1_739
*88 NOR2X1_346
*89 OAI22X1_26
*90 OAI22X1_29
*91 OAI22X1_23
*92 OAI22X1_32
*93 OAI21X1_560
*94 OAI21X1_428
*95 OAI21X1_666
*96 OAI21X1_500
*97 OAI21X1_617
*98 OAI21X1_598
*99 _3582_
*100 NAND2X1_917
*101 AOI22X1_119
*102 AOI22X1_123
*103 AOI22X1_121
*104 AOI22X1_124
*105 AOI22X1_122
*106 AOI22X1_125
*107 AOI22X1_120
*108 AOI22X1_118
*109 AOI22X1_116
*110 OAI22X1_49
*111 AOI22X1_117
*112 AOI22X1_115
*113 NAND2X1_919
*114 AOI22X1_114
*115 _4039_
*116 AOI21X1_259
*117 OAI21X1_1005
*118 NAND2X1_1017
*119 OAI21X1_1060
*120 OAI21X1_1014
*121 NAND2X1_1012
*122 OAI21X1_993
*123 OAI21X1_985
*124 OAI21X1_989
*125 NAND2X1_1013
*126 NAND2X1_1016
*127 OAI21X1_1001
*128 OAI21X1_997
*129 NAND2X1_1015
*130 NAND2X1_1014
*131 Instruction_Decoder_funct12[0]
*132 DFFPOSX1_428
*133 AOI22X1_3
*134 INVX1_132
*135 NAND2X1_809
*136 OAI22X1_47
*137 OAI21X1_874
*138 AOI21X1_229
*139 AOI21X1_227
*140 INVX1_568
*141 NAND2X1_818
*142 BUFX2_87
*143 NAND3X1_326
*144 INVX1_641
*145 AOI22X1_115
*146 _3606_
*147 INVX8_14
*148 OAI21X1_899
*149 OAI21X1_897
*150 OAI21X1_892
*151 OAI21X1_895
*152 OAI21X1_894
*153 AOI21X1_230
*154 OAI21X1_881
*155 OAI21X1_893
*156 OAI21X1_891
*157 OAI21X1_900
*158 OAI21X1_898
*159 OAI21X1_896
*160 OAI21X1_901
*161 _3556_
*162 AOI21X1_230
*163 OAI21X1_882
*164 AOI22X1_119
*165 AOI22X1_123
*166 INVX4_11
*167 AOI22X1_124
*168 AOI22X1_125
*169 AOI22X1_120
*170 AOI22X1_122
*171 AOI22X1_121
*172 AOI22X1_118
*173 AOI22X1_116
*174 AOI22X1_117
*175 AOI22X1_115
*176 _1530_
*177 NOR2X1_298
*178 AND2X2_49
*179 INVX2_65
*180 OAI21X1_731
*181 OAI21X1_663
*182 OAI21X1_637
*183 OAI21X1_703
*184 NAND3X1_161
*185 AOI21X1_213
*186 AOI21X1_201
*187 AOI21X1_198
*188 AOI21X1_206
*189 AOI21X1_210
*190 _3936_
*191 NAND3X1_346
*192 AND2X2_101
*193 AOI21X1_265
*194 NOR2X1_482
*195 OAI22X1_54
*196 OAI22X1_55
*197 OAI22X1_57
*198 OAI22X1_56
*199 OAI22X1_58
*200 AOI21X1_266
*201 OAI22X1_59
*202 OAI22X1_53
*203 NAND3X1_349
*204 _3939_
*205 INVX8_15
*206 NAND2X1_996
*207 NOR2X1_470
*208 AND2X2_99
*209 OAI21X1_978
*210 NOR2X1_478
*211 OAI21X1_958
*212 OAI21X1_966
*213 OAI21X1_964
*214 OAI21X1_962
*215 OAI21X1_956
*216 OAI21X1_954
*217 OAI21X1_960
*218 _3958_
*219 INVX8_17
*220 NOR2X1_483
*221 OAI21X1_978
*222 NOR2X1_478
*223 OAI21X1_958
*224 OAI21X1_966
*225 OAI21X1_964
*226 OAI21X1_962
*227 OAI21X1_956
*228 OAI21X1_954
*229 OAI21X1_960
*230 OAI21X1_1059
*231 NOR2X1_474
*232 fetch_unit_jump_branch_enable_bF_buf8
*233 BUFX4_241
*234 NAND2X1_684
*235 NAND2X1_678
*236 NAND2X1_679
*237 NAND2X1_693
*238 NAND2X1_696
*239 OAI21X1_865
*240 NAND2X1_692
*241 NAND2X1_688
*242 OAI21X1_859
*243 OAI21X1_858
*244 NAND2X1_687
*245 fetch_unit_jump_branch_enable_bF_buf7
*246 BUFX4_242
*247 NOR3X1_15
*248 NOR3X1_8
*249 NOR3X1_14
*250 NOR3X1_26
*251 NOR3X1_20
*252 NOR3X1_21
*253 NOR3X1_18
*254 INVX4_1
*255 NOR3X1_12
*256 NOR3X1_13
*257 NOR3X1_22
*258 fetch_unit_jump_branch_enable_bF_buf6
*259 BUFX4_243
*260 OAI21X1_822
*261 OAI21X1_843
*262 NAND2X1_657
*263 OAI21X1_832
*264 OAI21X1_825
*265 NAND2X1_659
*266 NAND2X1_655
*267 OAI21X1_835
*268 NAND2X1_662
*269 NAND2X1_666
*270 OR2X2_45
*271 fetch_unit_jump_branch_enable_bF_buf5
*272 BUFX4_244
*273 NOR3X1_24
*274 NOR3X1_30
*275 NOR3X1_38
*276 NOR3X1_23
*277 NOR3X1_33
*278 NOR3X1_31
*279 NOR3X1_37
*280 NOR3X1_34
*281 NOR3X1_35
*282 NOR3X1_32
*283 NOR3X1_25
*284 fetch_unit_jump_branch_enable_bF_buf4
*285 BUFX4_245
*286 NAND2X1_668
*287 NAND2X1_646
*288 NAND2X1_648
*289 NAND2X1_651
*290 OAI21X1_827
*291 NAND2X1_652
*292 OAI21X1_836
*293 NAND2X1_663
*294 NAND2X1_664
*295 NAND2X1_644
*296 NAND2X1_642
*297 address_generator_opcode[3]
*298 DFFPOSX1_289
*299 NOR2X1_5
*300 NOR2X1_1
*301 INVX1_232
*302 NOR2X1_24
*303 AND2X2_10
*304 NOR2X1_177
*305 NOR3X1_48
*306 OR2X2_16
*307 NOR2X1_128
*308 OAI21X1_371
*309 DFFPOSX1_113
*310 Instruction_Decoder_instruction[15]
*311 DFFPOSX1_423
*312 OAI22X1_4
*313 INVX1_136
*314 AOI22X1_4
*315 NAND2X1_699
*316 INVX1_495
*317 NAND2X1_708
*318 OAI21X1_870
*319 AOI21X1_225
*320 OAI22X1_45
*321 AOI21X1_223
*322 INVX1_657
*323 address_memory_reg[1]
*324 DFFPOSX1_159
*325 INVX4_12
*326 AOI21X1_259
*327 OAI21X1_980
*328 OAI21X1_1056
*329 OAI21X1_1028
*330 OAI21X1_1019
*331 OAI21X1_1025
*332 OAI21X1_1033
*333 OAI21X1_1022
*334 OAI21X1_1016
*335 NOR2X1_477
*336 _2827_
*337 NOR2X1_199
*338 AOI21X1_174
*339 AOI21X1_151
*340 AOI21X1_171
*341 AOI21X1_162
*342 AOI21X1_147
*343 AOI21X1_75
*344 INVX4_7
*345 NAND2X1_586
*346 OAI21X1_488
*347 NAND2X1_576
*348 NAND2X1_581
*349 _3568_
*350 AOI21X1_231
*351 OAI21X1_894
*352 OAI21X1_892
*353 OAI21X1_895
*354 OAI21X1_893
*355 OAI21X1_891
*356 OAI21X1_899
*357 OAI21X1_897
*358 OAI21X1_900
*359 OAI21X1_898
*360 OAI21X1_896
*361 OAI21X1_901
*362 _3950_
*363 INVX8_16
*364 NOR3X1_80
*365 NOR3X1_79
*366 OAI21X1_945
*367 OAI21X1_1065
*368 OAI21X1_976
*369 OAI21X1_987
*370 OAI21X1_983
*371 OAI21X1_991
*372 OAI21X1_995
*373 OAI21X1_999
*374 OAI21X1_1003
*375 fetch_unit_jump_branch_enable_bF_buf3
*376 BUFX4_246
*377 NOR3X1_11
*378 NOR3X1_4
*379 NOR3X1_1
*380 OAI21X1_815
*381 OAI21X1_816
*382 NAND2X1_691
*383 OAI21X1_862
*384 NOR3X1_46
*385 NOR3X1_40
*386 NOR3X1_28
*387 fetch_unit_jump_branch_enable_bF_buf2
*388 BUFX4_247
*389 NAND2X1_647
*390 INVX8_13
*391 NAND2X1_675
*392 NAND2X1_670
*393 OAI21X1_817
*394 OAI21X1_852
*395 NAND2X1_677
*396 OAI21X1_847
*397 NAND2X1_641
*398 NAND2X1_674
*399 fetch_unit_jump_branch_enable_bF_buf1
*400 BUFX4_248
*401 NAND2X1_639
*402 NOR3X1_7
*403 NOR3X1_6
*404 NOR3X1_10
*405 NOR3X1_9
*406 NOR3X1_2
*407 NAND2X1_640
*408 NAND2X1_685
*409 NOR3X1_27
*410 NOR3X1_5
*411 fetch_unit_jump_branch_enable_bF_buf0
*412 BUFX4_249
*413 NOR3X1_3
*414 NOR3X1_45
*415 NOR3X1_42
*416 NOR3X1_43
*417 NOR3X1_19
*418 NOR3X1_36
*419 NOR3X1_41
*420 NOR3X1_39
*421 NOR3X1_44
*422 NOR3X1_29
*423 address_generator_opcode[5]
*424 DFFPOSX1_291
*425 NOR2X1_6
*426 NAND2X1_65
*427 NAND3X1_328
*428 NAND3X1_75
*429 NOR2X1_129
*430 INVX1_236
*431 NAND2X1_195
*432 NAND2X1_313
*433 AND2X2_24
*434 DFFPOSX1_115
*435 address_generator_opcode[2]
*436 DFFPOSX1_288
*437 NOR2X1_5
*438 INVX1_66
*439 NAND3X1_329
*440 NAND3X1_76
*441 AND2X2_10
*442 NOR2X1_24
*443 INVX1_346
*444 INVX1_238
*445 NAND2X1_194
*446 DFFPOSX1_112
*447 Instruction_Decoder_funct12[2]
*448 DFFPOSX1_430
*449 OAI22X1_2
*450 AOI22X1_1
*451 XOR2X1_17
*452 OR2X2_52
*453 NAND2X1_815
*454 INVX1_133
*455 XOR2X1_15
*456 BUFX2_89
*457 INVX1_645
*458 AOI22X1_117
*459 Instruction_Decoder_funct12[4]
*460 DFFPOSX1_432
*461 AOI22X1_119
*462 INVX1_647
*463 XOR2X1_14
*464 AOI22X1_2
*465 OR2X2_51
*466 XOR2X1_16
*467 BUFX2_91
*468 OAI22X1_3
*469 INVX1_134
*470 NAND2X1_814
*471 _2183_
*472 NOR2X1_79
*473 AOI22X1_104
*474 NOR2X1_82
*475 NAND2X1_582
*476 AOI21X1_191
*477 OAI21X1_732
*478 OAI21X1_714
*479 OAI21X1_335
*480 AND2X2_65
*481 AND2X2_64
*482 OAI21X1_710
*483 _3584_
*484 NAND2X1_918
*485 AOI22X1_114
*486 NAND2X1_919
*487 OAI21X1_886
*488 OAI21X1_890
*489 OAI21X1_889
*490 OAI21X1_887
*491 OAI21X1_888
*492 OAI21X1_885
*493 OAI21X1_883
*494 OAI21X1_884
*495 _3975_
*496 OAI21X1_947
*497 OAI21X1_1008
*498 NOR2X1_488
*499 OAI22X1_59
*500 OAI22X1_53
*501 NAND3X1_355
*502 OAI22X1_56
*503 OAI22X1_54
*504 OAI22X1_58
*505 OAI22X1_55
*506 OAI22X1_57
*507 CLK_hier0_bF_buf6
*508 BUFX4_1
*509 CLKBUF1_9
*510 CLKBUF1_59
*511 CLKBUF1_39
*512 CLKBUF1_40
*513 CLKBUF1_34
*514 CLKBUF1_49
*515 CLKBUF1_24
*516 CLKBUF1_11
*517 CLKBUF1_20
*518 CLK_hier0_bF_buf5
*519 BUFX4_2
*520 CLKBUF1_23
*521 CLKBUF1_60
*522 CLKBUF1_38
*523 CLKBUF1_62
*524 CLKBUF1_29
*525 CLKBUF1_16
*526 CLKBUF1_8
*527 CLKBUF1_22
*528 CLKBUF1_28
*529 CLK_hier0_bF_buf4
*530 BUFX4_3
*531 CLKBUF1_54
*532 CLKBUF1_33
*533 CLKBUF1_10
*534 CLKBUF1_45
*535 CLKBUF1_35
*536 CLKBUF1_41
*537 CLKBUF1_7
*538 CLKBUF1_26
*539 CLKBUF1_14
*540 CLK_hier0_bF_buf3
*541 BUFX4_4
*542 CLKBUF1_55
*543 CLKBUF1_42
*544 CLKBUF1_19
*545 CLKBUF1_43
*546 CLKBUF1_51
*547 CLKBUF1_61
*548 CLKBUF1_3
*549 CLKBUF1_30
*550 CLKBUF1_31
*551 CLK_hier0_bF_buf2
*552 BUFX4_5
*553 CLKBUF1_36
*554 CLKBUF1_56
*555 CLKBUF1_47
*556 CLKBUF1_13
*557 CLKBUF1_44
*558 CLKBUF1_5
*559 CLKBUF1_6
*560 CLKBUF1_27
*561 CLKBUF1_52
*562 CLK_hier0_bF_buf1
*563 BUFX4_6
*564 CLKBUF1_4
*565 CLKBUF1_2
*566 CLKBUF1_17
*567 CLKBUF1_58
*568 CLKBUF1_12
*569 CLKBUF1_25
*570 CLKBUF1_1
*571 CLKBUF1_32
*572 CLKBUF1_18
*573 CLK_hier0_bF_buf0
*574 BUFX4_7
*575 CLKBUF1_50
*576 CLKBUF1_15
*577 CLKBUF1_63
*578 CLKBUF1_21
*579 CLKBUF1_48
*580 CLKBUF1_46
*581 CLKBUF1_57
*582 CLKBUF1_37
*583 CLKBUF1_53
*584 _2585__bF_buf6
*585 BUFX4_38
*586 NAND2X1_583
*587 OAI21X1_724
*588 AOI21X1_53
*589 NOR2X1_159
*590 OAI21X1_699
*591 NAND2X1_573
*592 OAI21X1_387
*593 NAND2X1_371
*594 AOI21X1_169
*595 _2585__bF_buf5
*596 BUFX4_39
*597 OAI21X1_452
*598 NAND2X1_368
*599 OAI21X1_384
*600 OAI21X1_631
*601 NAND2X1_369
*602 OAI21X1_385
*603 OAI21X1_344
*604 OAI21X1_393
*605 NAND2X1_325
*606 _2585__bF_buf4
*607 BUFX4_40
*608 NOR2X1_157
*609 OAI21X1_745
*610 OAI21X1_355
*611 OAI21X1_765
*612 NAND2X1_334
*613 NAND2X1_335
*614 NAND2X1_421
*615 OAI21X1_356
*616 NOR2X1_190
*617 _2446__bF_buf6
*618 BUFX4_124
*619 OAI21X1_536
*620 OAI21X1_538
*621 OAI21X1_422
*622 NOR2X1_207
*623 OAI21X1_369
*624 NAND3X1_106
*625 NAND2X1_359
*626 AOI21X1_59
*627 AOI21X1_54
*628 _2446__bF_buf5
*629 BUFX4_125
*630 OAI21X1_688
*631 OAI21X1_622
*632 OAI21X1_636
*633 NAND2X1_549
*634 OAI21X1_635
*635 OAI21X1_637
*636 OAI21X1_687
*637 NOR2X1_327
*638 OAI21X1_664
*639 _2446__bF_buf4
*640 BUFX4_126
*641 NAND2X1_540
*642 NOR2X1_299
*643 OAI21X1_615
*644 OAI21X1_616
*645 NOR2X1_198
*646 NAND2X1_289
*647 NOR2X1_150
*648 NAND2X1_445
*649 OAI21X1_623
*650 _2446__bF_buf3
*651 BUFX4_127
*652 NOR2X1_373
*653 NAND2X1_523
*654 NOR2X1_279
*655 OAI22X1_33
*656 NAND2X1_361
*657 OAI21X1_779
*658 NAND2X1_516
*659 NOR2X1_368
*660 OAI21X1_778
*661 _2446__bF_buf2
*662 BUFX4_128
*663 OAI22X1_35
*664 OAI21X1_705
*665 OAI21X1_508
*666 OAI21X1_704
*667 OAI21X1_545
*668 OAI21X1_566
*669 OAI21X1_702
*670 OAI21X1_586
*671 OAI21X1_674
*672 _2446__bF_buf1
*673 BUFX4_129
*674 OAI21X1_731
*675 OAI21X1_579
*676 OAI21X1_651
*677 OAI21X1_653
*678 NOR2X1_202
*679 OAI21X1_728
*680 OAI21X1_730
*681 OAI21X1_727
*682 OAI21X1_675
*683 _2395__bF_buf6
*684 BUFX4_211
*685 NAND2X1_558
*686 NAND2X1_566
*687 MUX2X1_45
*688 OAI21X1_359
*689 MUX2X1_20
*690 NAND2X1_452
*691 OAI21X1_766
*692 OAI22X1_44
*693 NAND2X1_336
*694 _2395__bF_buf5
*695 BUFX4_212
*696 NAND2X1_439
*697 OAI21X1_472
*698 OAI21X1_738
*699 OAI21X1_776
*700 OAI21X1_777
*701 NAND2X1_590
*702 OAI21X1_757
*703 MUX2X1_49
*704 OAI22X1_42
*705 _2395__bF_buf4
*706 BUFX4_213
*707 OAI21X1_506
*708 OAI21X1_366
*709 OAI21X1_482
*710 NAND2X1_409
*711 NAND3X1_105
*712 NAND2X1_410
*713 NAND2X1_268
*714 NOR2X1_141
*715 AOI21X1_62
*716 _2395__bF_buf3
*717 BUFX4_214
*718 OAI21X1_613
*719 NAND2X1_538
*720 NAND2X1_514
*721 OAI21X1_569
*722 NAND2X1_479
*723 NAND2X1_497
*724 OAI21X1_585
*725 NAND2X1_527
*726 OAI21X1_519
*727 _2407__bF_buf7
*728 BUFX4_223
*729 OAI21X1_365
*730 NAND2X1_430
*731 OAI21X1_484
*732 OAI21X1_343
*733 NAND2X1_403
*734 OAI21X1_417
*735 NAND2X1_457
*736 NAND2X1_370
*737 MUX2X1_23
*738 fetch_unit_jump_branch_enable
*739 OAI21X1_902
*740 BUFX4_248
*741 BUFX4_246
*742 BUFX4_249
*743 BUFX4_242
*744 BUFX4_244
*745 BUFX4_247
*746 BUFX4_243
*747 BUFX4_245
*748 BUFX4_241
*749 address_generator_opcode[4]
*750 DFFPOSX1_290
*751 NOR2X1_6
*752 NAND2X1_65
*753 INVX1_663
*754 INVX1_231
*755 NOR2X1_25
*756 NAND2X1_311
*757 NOR3X1_47
*758 NOR2X1_70
*759 DFFPOSX1_114
*760 hazard_forward_unit_source_1_destination_index_1[0]
*761 DFFPOSX1_338
*762 NAND2X1_697
*763 INVX1_496
*764 INVX1_569
*765 NAND2X1_807
*766 DFFPOSX1_152
*767 AOI22X1_5
*768 OAI22X1_3
*769 AOI22X1_1
*770 INVX2_1
*771 Instruction_Decoder_funct12[1]
*772 DFFPOSX1_429
*773 BUFX2_88
*774 INVX1_644
*775 INVX2_76
*776 OAI22X1_47
*777 AOI22X1_113
*778 NAND2X1_810
*779 XNOR2X1_2
*780 XOR2X1_1
*781 AOI22X1_116
*782 arithmetic_logic_unit_funct3[2]
*783 DFFPOSX1_295
*784 NOR2X1_174
*785 NAND2X1_344
*786 NAND2X1_355
*787 NOR2X1_136
*788 NAND2X1_990
*789 INVX1_713
*790 NAND2X1_983
*791 AND2X2_93
*792 DFFPOSX1_119
*793 Instruction_Decoder_instruction_type[2]
*794 OAI22X1_6
*795 NAND3X1_326
*796 AOI22X1_114
*797 AOI21X1_231
*798 INVX1_642
*799 OAI21X1_882
*800 DFFPOSX1_337
*801 AOI21X1_230
*802 NAND2X1_918
*803 NOR2X1_411
*804 address_generator_rs1[11]
*805 DFFPOSX1_355
*806 AND2X2_96
*807 NOR2X1_463
*808 NAND2X1_964
*809 OAI21X1_911
*810 NAND2X1_950
*811 INVX1_334
*812 MUX2X1_7
*813 OR2X2_58
*814 AOI22X1_49
*815 address_generator_rs1[19]
*816 DFFPOSX1_363
*817 NOR2X1_426
*818 AND2X2_84
*819 NAND2X1_972
*820 OAI21X1_917
*821 INVX1_696
*822 NAND2X1_976
*823 NAND2X1_162
*824 MUX2X1_1
*825 INVX1_323
*826 _999_
*827 NOR2X1_216
*828 AOI22X1_107
*829 AND2X2_74
*830 NAND2X1_591
*831 AND2X2_71
*832 AOI21X1_188
*833 AND2X2_61
*834 INVX2_55
*835 AOI22X1_106
*836 AOI21X1_193
*837 _3947_
*838 OAI21X1_942
*839 NAND3X1_349
*840 NAND3X1_355
*841 OAI21X1_1029
*842 OAI21X1_1020
*843 INVX2_93
*844 OAI21X1_1034
*845 OAI21X1_1026
*846 OAI21X1_1017
*847 OAI21X1_1023
*848 _3948_
*849 INVX4_13
*850 OAI21X1_976
*851 OAI21X1_1003
*852 OAI21X1_945
*853 OAI21X1_1065
*854 OAI21X1_987
*855 OAI21X1_983
*856 OAI21X1_991
*857 OAI21X1_995
*858 OAI21X1_999
*859 _3979_
*860 OAI21X1_949
*861 AOI21X1_257
*862 AOI21X1_264
*863 OAI21X1_1062
*864 AOI21X1_258
*865 AOI21X1_260
*866 AOI21X1_261
*867 AOI21X1_263
*868 AOI21X1_262
*869 OAI21X1_951
*870 FW_enable_1
*871 NAND3X1_255
*872 BUFX4_18
*873 BUFX4_21
*874 BUFX4_24
*875 BUFX4_19
*876 BUFX4_17
*877 BUFX4_23
*878 BUFX4_20
*879 BUFX4_22
*880 FW_enable_1_bF_buf7
*881 BUFX4_17
*882 OAI21X1_26
*883 OAI21X1_9
*884 NAND2X1_14
*885 NAND2X1_7
*886 NAND2X1_13
*887 NAND2X1_8
*888 NAND2X1_9
*889 NAND2X1_26
*890 FW_enable_1_bF_buf6
*891 BUFX4_18
*892 NAND2X1_21
*893 OAI21X1_21
*894 NAND2X1_18
*895 OAI21X1_22
*896 OAI21X1_4
*897 NAND2X1_4
*898 NAND2X1_23
*899 OAI21X1_18
*900 FW_enable_1_bF_buf5
*901 BUFX4_19
*902 NAND2X1_16
*903 NAND2X1_27
*904 NAND2X1_19
*905 NAND2X1_6
*906 NAND2X1_15
*907 OAI21X1_27
*908 OAI21X1_19
*909 OAI21X1_15
*910 FW_enable_1_bF_buf4
*911 BUFX4_20
*912 NAND2X1_32
*913 NAND2X1_30
*914 OAI21X1_30
*915 NAND2X1_11
*916 OAI21X1_32
*917 NAND2X1_1
*918 NAND2X1_10
*919 NAND2X1_31
*920 FW_enable_1_bF_buf3
*921 BUFX4_21
*922 OAI21X1_24
*923 NAND2X1_24
*924 NAND2X1_25
*925 OAI21X1_5
*926 OAI21X1_3
*927 OAI21X1_23
*928 OAI21X1_25
*929 NAND2X1_5
*930 FW_enable_1_bF_buf2
*931 BUFX4_22
*932 OAI21X1_28
*933 OAI21X1_11
*934 OAI21X1_31
*935 OAI21X1_12
*936 OAI21X1_29
*937 NAND2X1_12
*938 NAND2X1_29
*939 NAND2X1_28
*940 FW_enable_1_bF_buf1
*941 BUFX4_23
*942 OAI21X1_14
*943 OAI21X1_1
*944 NAND2X1_2
*945 OAI21X1_2
*946 OAI21X1_10
*947 OAI21X1_8
*948 OAI21X1_16
*949 OAI21X1_13
*950 FW_enable_1_bF_buf0
*951 BUFX4_24
*952 NAND2X1_22
*953 NAND2X1_3
*954 NAND2X1_17
*955 OAI21X1_6
*956 NAND2X1_20
*957 OAI21X1_17
*958 OAI21X1_20
*959 OAI21X1_7
*960 FW_enable_2
*961 NAND3X1_325
*962 BUFX4_27
*963 BUFX4_28
*964 BUFX4_25
*965 BUFX4_32
*966 BUFX4_29
*967 BUFX4_26
*968 BUFX4_30
*969 BUFX4_31
*970 FW_enable_2_bF_buf7
*971 BUFX4_25
*972 OAI21X1_61
*973 NAND2X1_62
*974 NAND2X1_49
*975 NAND2X1_55
*976 NAND2X1_59
*977 NAND2X1_48
*978 OAI21X1_48
*979 NAND2X1_46
*980 FW_enable_2_bF_buf6
*981 BUFX4_26
*982 OAI21X1_58
*983 OAI21X1_50
*984 OAI21X1_44
*985 OAI21X1_59
*986 OAI21X1_45
*987 NAND2X1_45
*988 OAI21X1_35
*989 OAI21X1_60
*990 FW_enable_2_bF_buf5
*991 BUFX4_27
*992 OAI21X1_53
*993 NAND2X1_57
*994 NAND2X1_39
*995 OAI21X1_57
*996 OAI21X1_36
*997 OAI21X1_40
*998 NAND2X1_40
*999 NAND2X1_53
*1000 FW_enable_2_bF_buf4
*1001 BUFX4_28
*1002 NAND2X1_33
*1003 NAND2X1_37
*1004 OAI21X1_37
*1005 NAND2X1_60
*1006 NAND2X1_47
*1007 NAND2X1_34
*1008 NAND2X1_50
*1009 OAI21X1_33
*1010 FW_enable_2_bF_buf3
*1011 BUFX4_29
*1012 NAND2X1_58
*1013 OAI21X1_47
*1014 OAI21X1_49
*1015 NAND2X1_44
*1016 OAI21X1_62
*1017 OAI21X1_38
*1018 OAI21X1_55
*1019 NAND2X1_38
*1020 FW_enable_2_bF_buf2
*1021 BUFX4_30
*1022 OAI21X1_34
*1023 NAND2X1_43
*1024 NAND2X1_63
*1025 OAI21X1_54
*1026 NAND2X1_54
*1027 OAI21X1_43
*1028 NAND2X1_35
*1029 OAI21X1_63
*1030 FW_enable_2_bF_buf1
*1031 BUFX4_31
*1032 NAND2X1_36
*1033 NAND2X1_52
*1034 NAND2X1_41
*1035 OAI21X1_52
*1036 NAND2X1_56
*1037 OAI21X1_56
*1038 OAI21X1_51
*1039 NAND2X1_51
*1040 FW_enable_2_bF_buf0
*1041 BUFX4_32
*1042 OAI21X1_39
*1043 OAI21X1_41
*1044 NAND2X1_64
*1045 OAI21X1_64
*1046 NAND2X1_61
*1047 NAND2X1_42
*1048 OAI21X1_42
*1049 OAI21X1_46
*1050 _2585__bF_buf3
*1051 BUFX4_41
*1052 NOR2X1_156
*1053 AOI21X1_51
*1054 NAND2X1_381
*1055 OAI21X1_396
*1056 OAI21X1_395
*1057 AOI21X1_93
*1058 OAI21X1_469
*1059 NAND2X1_383
*1060 _2585__bF_buf2
*1061 BUFX4_42
*1062 OAI21X1_348
*1063 NAND2X1_330
*1064 OAI21X1_350
*1065 NAND2X1_332
*1066 OAI21X1_400
*1067 OAI21X1_517
*1068 NAND2X1_385
*1069 NOR2X1_192
*1070 _2585__bF_buf1
*1071 BUFX4_43
*1072 NAND2X1_328
*1073 OAI21X1_347
*1074 NAND2X1_386
*1075 OAI21X1_403
*1076 NAND2X1_387
*1077 OAI21X1_402
*1078 OAI21X1_583
*1079 AOI21X1_120
*1080 _2585__bF_buf0
*1081 BUFX4_44
*1082 NAND2X1_372
*1083 OAI21X1_388
*1084 NOR2X1_161
*1085 NOR2X1_184
*1086 NAND2X1_324
*1087 OAI21X1_342
*1088 NAND2X1_379
*1089 AOI21X1_58
*1090 _194__bF_buf5
*1091 BUFX4_45
*1092 NOR3X1_12
*1093 NOR3X1_13
*1094 NOR3X1_19
*1095 NOR3X1_22
*1096 NOR3X1_18
*1097 NOR3X1_21
*1098 NOR3X1_14
*1099 NOR3X1_36
*1100 _194__bF_buf4
*1101 BUFX4_46
*1102 NOR3X1_15
*1103 NOR3X1_8
*1104 NOR3X1_26
*1105 NOR3X1_20
*1106 NOR3X1_24
*1107 NOR3X1_30
*1108 NOR3X1_25
*1109 NOR3X1_32
*1110 _2388_
*1111 INVX8_3
*1112 BUFX4_52
*1113 BUFX4_53
*1114 BUFX4_55
*1115 BUFX4_51
*1116 BUFX4_57
*1117 BUFX4_56
*1118 BUFX4_58
*1119 BUFX4_54
*1120 _2388__bF_buf7
*1121 BUFX4_51
*1122 AOI21X1_126
*1123 NAND2X1_539
*1124 OAI21X1_614
*1125 OAI21X1_664
*1126 AOI21X1_164
*1127 MUX2X1_34
*1128 NAND2X1_424
*1129 MUX2X1_38
*1130 _2388__bF_buf6
*1131 BUFX4_52
*1132 OAI21X1_566
*1133 NAND2X1_515
*1134 AOI21X1_118
*1135 OAI21X1_570
*1136 OAI21X1_522
*1137 NAND2X1_375
*1138 OAI21X1_391
*1139 NOR2X1_271
*1140 _2388__bF_buf5
*1141 BUFX4_53
*1142 OAI21X1_758
*1143 AND2X2_38
*1144 NAND2X1_440
*1145 OAI21X1_473
*1146 NAND2X1_560
*1147 NOR2X1_340
*1148 AOI22X1_98
*1149 NOR2X1_280
*1150 _2388__bF_buf4
*1151 BUFX4_54
*1152 AOI21X1_138
*1153 OAI21X1_507
*1154 NAND2X1_482
*1155 NAND2X1_473
*1156 NOR2X1_140
*1157 NAND2X1_265
*1158 NAND2X1_425
*1159 AOI21X1_76
*1160 _2388__bF_buf3
*1161 BUFX4_55
*1162 MUX2X1_56
*1163 NAND2X1_598
*1164 OAI21X1_672
*1165 NOR2X1_353
*1166 OAI21X1_673
*1167 NAND2X1_511
*1168 OAI21X1_769
*1169 NAND2X1_601
*1170 _2388__bF_buf2
*1171 BUFX4_56
*1172 OAI21X1_730
*1173 NAND2X1_506
*1174 MUX2X1_54
*1175 NAND2X1_504
*1176 OAI21X1_586
*1177 NOR2X1_329
*1178 NAND2X1_528
*1179 AND2X2_66
*1180 _2388__bF_buf1
*1181 BUFX4_57
*1182 NAND2X1_491
*1183 OAI21X1_534
*1184 AOI21X1_124
*1185 OAI21X1_488
*1186 OAI21X1_483
*1187 NAND2X1_459
*1188 OAI22X1_14
*1189 NOR2X1_239
*1190 _2388__bF_buf0
*1191 BUFX4_58
*1192 OAI21X1_579
*1193 MUX2X1_29
*1194 OAI21X1_413
*1195 NAND2X1_398
*1196 NOR2X1_260
*1197 OAI21X1_420
*1198 NOR2X1_206
*1199 OAI21X1_538
*1200 _2446__bF_buf0
*1201 BUFX4_130
*1202 AND2X2_56
*1203 OAI21X1_767
*1204 NAND2X1_591
*1205 OAI21X1_768
*1206 NAND2X1_604
*1207 OAI21X1_780
*1208 NOR2X1_345
*1209 NOR2X1_360
*1210 _29_
*1211 NOR2X1_2
*1212 BUFX4_158
*1213 BUFX4_161
*1214 BUFX4_157
*1215 BUFX4_160
*1216 BUFX4_159
*1217 BUFX4_162
*1218 BUFX4_163
*1219 BUFX4_156
*1220 _29__bF_buf7
*1221 BUFX4_156
*1222 OAI21X1_66
*1223 NAND2X1_98
*1224 OAI21X1_96
*1225 OAI21X1_94
*1226 NAND2X1_96
*1227 NAND2X1_95
*1228 OAI21X1_93
*1229 NAND2X1_68
*1230 _29__bF_buf6
*1231 BUFX4_157
*1232 OAI21X1_81
*1233 NAND2X1_83
*1234 OAI21X1_72
*1235 NAND2X1_74
*1236 OAI21X1_87
*1237 NAND2X1_89
*1238 OAI21X1_68
*1239 NAND2X1_70
*1240 _29__bF_buf5
*1241 BUFX4_158
*1242 OAI21X1_83
*1243 NAND2X1_85
*1244 NAND2X1_72
*1245 OAI21X1_70
*1246 OAI21X1_84
*1247 NAND2X1_86
*1248 OAI21X1_85
*1249 NAND2X1_87
*1250 _29__bF_buf4
*1251 BUFX4_159
*1252 NAND2X1_73
*1253 OAI21X1_80
*1254 NAND2X1_82
*1255 OAI21X1_92
*1256 NAND2X1_94
*1257 NAND2X1_78
*1258 OAI21X1_76
*1259 OAI21X1_71
*1260 _29__bF_buf3
*1261 BUFX4_160
*1262 NAND2X1_81
*1263 NAND2X1_69
*1264 NAND2X1_71
*1265 OAI21X1_69
*1266 OAI21X1_67
*1267 OAI21X1_79
*1268 NAND2X1_93
*1269 OAI21X1_91
*1270 _29__bF_buf2
*1271 BUFX4_161
*1272 OAI21X1_89
*1273 OAI21X1_82
*1274 NAND2X1_84
*1275 OAI21X1_88
*1276 NAND2X1_90
*1277 OAI21X1_86
*1278 NAND2X1_88
*1279 NAND2X1_91
*1280 _29__bF_buf1
*1281 BUFX4_162
*1282 NAND2X1_67
*1283 OAI21X1_95
*1284 NAND2X1_92
*1285 OAI21X1_90
*1286 NAND2X1_75
*1287 OAI21X1_73
*1288 OAI21X1_65
*1289 OAI21X1_77
*1290 _29__bF_buf0
*1291 BUFX4_163
*1292 OAI21X1_78
*1293 NAND2X1_97
*1294 OAI21X1_74
*1295 OAI21X1_75
*1296 NAND2X1_77
*1297 NAND2X1_76
*1298 NAND2X1_79
*1299 NAND2X1_80
*1300 CLK_bF_buf62
*1301 CLKBUF1_1
*1302 DFFPOSX1_330
*1303 DFFPOSX1_329
*1304 DFFPOSX1_325
*1305 DFFPOSX1_327
*1306 DFFPOSX1_323
*1307 DFFPOSX1_311
*1308 DFFPOSX1_331
*1309 DFFPOSX1_332
*1310 CLK_bF_buf61
*1311 CLKBUF1_2
*1312 DFFPOSX1_18
*1313 DFFPOSX1_87
*1314 DFFPOSX1_229
*1315 DFFPOSX1_133
*1316 DFFPOSX1_225
*1317 DFFPOSX1_244
*1318 DFFPOSX1_17
*1319 DFFPOSX1_129
*1320 CLK_bF_buf60
*1321 CLKBUF1_3
*1322 DFFPOSX1_98
*1323 DFFPOSX1_94
*1324 DFFPOSX1_72
*1325 DFFPOSX1_81
*1326 DFFPOSX1_104
*1327 DFFPOSX1_239
*1328 DFFPOSX1_110
*1329 DFFPOSX1_242
*1330 CLK_bF_buf59
*1331 CLKBUF1_4
*1332 DFFPOSX1_130
*1333 DFFPOSX1_159
*1334 DFFPOSX1_367
*1335 DFFPOSX1_361
*1336 DFFPOSX1_231
*1337 DFFPOSX1_360
*1338 DFFPOSX1_368
*1339 DFFPOSX1_346
*1340 CLK_bF_buf58
*1341 CLKBUF1_5
*1342 DFFPOSX1_160
*1343 DFFPOSX1_186
*1344 DFFPOSX1_184
*1345 DFFPOSX1_441
*1346 DFFPOSX1_187
*1347 DFFPOSX1_473
*1348 DFFPOSX1_472
*1349 DFFPOSX1_440
*1350 CLK_bF_buf57
*1351 CLKBUF1_6
*1352 DFFPOSX1_182
*1353 DFFPOSX1_188
*1354 DFFPOSX1_189
*1355 DFFPOSX1_467
*1356 DFFPOSX1_180
*1357 DFFPOSX1_502
*1358 DFFPOSX1_498
*1359 DFFPOSX1_499
*1360 CLK_bF_buf56
*1361 CLKBUF1_7
*1362 DFFPOSX1_482
*1363 DFFPOSX1_450
*1364 DFFPOSX1_451
*1365 DFFPOSX1_483
*1366 DFFPOSX1_479
*1367 DFFPOSX1_480
*1368 DFFPOSX1_448
*1369 DFFPOSX1_170
*1370 CLK_bF_buf55
*1371 CLKBUF1_8
*1372 DFFPOSX1_193
*1373 DFFPOSX1_205
*1374 DFFPOSX1_219
*1375 DFFPOSX1_215
*1376 DFFPOSX1_389
*1377 DFFPOSX1_210
*1378 DFFPOSX1_191
*1379 DFFPOSX1_119
*1380 CLK_bF_buf54
*1381 CLKBUF1_9
*1382 DFFPOSX1_338
*1383 DFFPOSX1_154
*1384 DFFPOSX1_320
*1385 DFFPOSX1_339
*1386 DFFPOSX1_155
*1387 DFFPOSX1_416
*1388 DFFPOSX1_425
*1389 DFFPOSX1_426
*1390 CLK_bF_buf53
*1391 CLKBUF1_10
*1392 DFFPOSX1_478
*1393 DFFPOSX1_271
*1394 DFFPOSX1_457
*1395 DFFPOSX1_169
*1396 DFFPOSX1_489
*1397 DFFPOSX1_488
*1398 DFFPOSX1_446
*1399 DFFPOSX1_475
*1400 CLK_bF_buf52
*1401 CLKBUF1_11
*1402 DFFPOSX1_91
*1403 DFFPOSX1_59
*1404 DFFPOSX1_70
*1405 DFFPOSX1_82
*1406 DFFPOSX1_92
*1407 DFFPOSX1_85
*1408 DFFPOSX1_58
*1409 DFFPOSX1_80
*1410 CLK_bF_buf51
*1411 CLKBUF1_12
*1412 DFFPOSX1_38
*1413 DFFPOSX1_132
*1414 DFFPOSX1_20
*1415 DFFPOSX1_150
*1416 DFFPOSX1_316
*1417 DFFPOSX1_127
*1418 DFFPOSX1_294
*1419 DFFPOSX1_334
*1420 CLK_bF_buf50
*1421 CLKBUF1_13
*1422 DFFPOSX1_295
*1423 DFFPOSX1_436
*1424 DFFPOSX1_336
*1425 DFFPOSX1_289
*1426 DFFPOSX1_434
*1427 DFFPOSX1_335
*1428 DFFPOSX1_435
*1429 DFFPOSX1_432
*1430 CLK_bF_buf49
*1431 CLKBUF1_14
*1432 DFFPOSX1_262
*1433 DFFPOSX1_269
*1434 DFFPOSX1_266
*1435 DFFPOSX1_268
*1436 DFFPOSX1_267
*1437 DFFPOSX1_173
*1438 DFFPOSX1_167
*1439 DFFPOSX1_172
*1440 CLK_bF_buf48
*1441 CLKBUF1_15
*1442 DFFPOSX1_238
*1443 DFFPOSX1_93
*1444 DFFPOSX1_86
*1445 DFFPOSX1_224
*1446 DFFPOSX1_226
*1447 DFFPOSX1_61
*1448 DFFPOSX1_54
*1449 DFFPOSX1_108
*1450 CLK_bF_buf47
*1451 CLKBUF1_16
*1452 DFFPOSX1_214
*1453 DFFPOSX1_198
*1454 DFFPOSX1_190
*1455 DFFPOSX1_206
*1456 DFFPOSX1_203
*1457 DFFPOSX1_199
*1458 DFFPOSX1_196
*1459 DFFPOSX1_195
*1460 CLK_bF_buf46
*1461 CLKBUF1_17
*1462 DFFPOSX1_254
*1463 DFFPOSX1_284
*1464 DFFPOSX1_285
*1465 DFFPOSX1_278
*1466 DFFPOSX1_277
*1467 DFFPOSX1_302
*1468 DFFPOSX1_279
*1469 DFFPOSX1_282
*1470 CLK_bF_buf45
*1471 CLKBUF1_18
*1472 DFFPOSX1_128
*1473 DFFPOSX1_16
*1474 DFFPOSX1_135
*1475 DFFPOSX1_15
*1476 DFFPOSX1_21
*1477 DFFPOSX1_88
*1478 DFFPOSX1_56
*1479 DFFPOSX1_8
*1480 CLK_bF_buf44
*1481 CLKBUF1_19
*1482 DFFPOSX1_28
*1483 DFFPOSX1_140
*1484 DFFPOSX1_148
*1485 DFFPOSX1_137
*1486 DFFPOSX1_95
*1487 DFFPOSX1_63
*1488 DFFPOSX1_99
*1489 DFFPOSX1_62
*1490 CLK_bF_buf43
*1491 CLKBUF1_20
*1492 DFFPOSX1_411
*1493 DFFPOSX1_410
*1494 DFFPOSX1_409
*1495 DFFPOSX1_412
*1496 DFFPOSX1_414
*1497 DFFPOSX1_413
*1498 DFFPOSX1_408
*1499 DFFPOSX1_429
*1500 CLK_bF_buf42
*1501 CLKBUF1_21
*1502 DFFPOSX1_362
*1503 DFFPOSX1_230
*1504 DFFPOSX1_237
*1505 DFFPOSX1_233
*1506 DFFPOSX1_247
*1507 DFFPOSX1_252
*1508 DFFPOSX1_222
*1509 DFFPOSX1_78
*1510 CLK_bF_buf41
*1511 CLKBUF1_22
*1512 DFFPOSX1_192
*1513 DFFPOSX1_218
*1514 DFFPOSX1_208
*1515 DFFPOSX1_194
*1516 DFFPOSX1_381
*1517 DFFPOSX1_405
*1518 DFFPOSX1_207
*1519 DFFPOSX1_117
*1520 CLK_bF_buf40
*1521 CLKBUF1_23
*1522 DFFPOSX1_253
*1523 DFFPOSX1_236
*1524 DFFPOSX1_248
*1525 DFFPOSX1_228
*1526 DFFPOSX1_101
*1527 DFFPOSX1_251
*1528 DFFPOSX1_223
*1529 DFFPOSX1_240
*1530 CLK_bF_buf39
*1531 CLKBUF1_24
*1532 DFFPOSX1_123
*1533 DFFPOSX1_146
*1534 DFFPOSX1_14
*1535 DFFPOSX1_48
*1536 DFFPOSX1_32
*1537 DFFPOSX1_69
*1538 DFFPOSX1_34
*1539 DFFPOSX1_71
*1540 CLK_bF_buf38
*1541 CLKBUF1_25
*1542 DFFPOSX1_312
*1543 DFFPOSX1_309
*1544 DFFPOSX1_313
*1545 DFFPOSX1_293
*1546 DFFPOSX1_310
*1547 DFFPOSX1_328
*1548 DFFPOSX1_333
*1549 DFFPOSX1_308
*1550 CLK_bF_buf37
*1551 CLKBUF1_26
*1552 DFFPOSX1_264
*1553 DFFPOSX1_263
*1554 DFFPOSX1_162
*1555 DFFPOSX1_165
*1556 DFFPOSX1_261
*1557 DFFPOSX1_454
*1558 DFFPOSX1_171
*1559 DFFPOSX1_168
*1560 CLK_bF_buf36
*1561 CLKBUF1_27
*1562 DFFPOSX1_494
*1563 DFFPOSX1_462
*1564 DFFPOSX1_463
*1565 DFFPOSX1_503
*1566 DFFPOSX1_471
*1567 DFFPOSX1_464
*1568 DFFPOSX1_276
*1569 DFFPOSX1_495
*1570 CLK_bF_buf35
*1571 CLKBUF1_28
*1572 DFFPOSX1_204
*1573 DFFPOSX1_220
*1574 DFFPOSX1_202
*1575 DFFPOSX1_217
*1576 DFFPOSX1_211
*1577 DFFPOSX1_216
*1578 DFFPOSX1_201
*1579 DFFPOSX1_200
*1580 CLK_bF_buf34
*1581 CLKBUF1_29
*1582 DFFPOSX1_384
*1583 DFFPOSX1_395
*1584 DFFPOSX1_399
*1585 DFFPOSX1_398
*1586 DFFPOSX1_376
*1587 DFFPOSX1_383
*1588 DFFPOSX1_391
*1589 DFFPOSX1_212
*1590 CLK_bF_buf33
*1591 CLKBUF1_30
*1592 DFFPOSX1_121
*1593 DFFPOSX1_96
*1594 DFFPOSX1_53
*1595 DFFPOSX1_50
*1596 DFFPOSX1_105
*1597 DFFPOSX1_60
*1598 DFFPOSX1_73
*1599 DFFPOSX1_97
*1600 CLK_bF_buf32
*1601 CLKBUF1_31
*1602 DFFPOSX1_39
*1603 DFFPOSX1_9
*1604 DFFPOSX1_79
*1605 DFFPOSX1_77
*1606 DFFPOSX1_109
*1607 DFFPOSX1_47
*1608 DFFPOSX1_83
*1609 DFFPOSX1_227
*1610 CLK_bF_buf31
*1611 CLKBUF1_32
*1612 DFFPOSX1_145
*1613 DFFPOSX1_120
*1614 DFFPOSX1_30
*1615 DFFPOSX1_131
*1616 DFFPOSX1_33
*1617 DFFPOSX1_126
*1618 DFFPOSX1_144
*1619 DFFPOSX1_142
*1620 CLK_bF_buf30
*1621 CLKBUF1_33
*1622 DFFPOSX1_476
*1623 DFFPOSX1_477
*1624 DFFPOSX1_166
*1625 DFFPOSX1_445
*1626 DFFPOSX1_259
*1627 DFFPOSX1_481
*1628 DFFPOSX1_449
*1629 DFFPOSX1_447
*1630 CLK_bF_buf29
*1631 CLKBUF1_34
*1632 DFFPOSX1_288
*1633 DFFPOSX1_290
*1634 DFFPOSX1_291
*1635 DFFPOSX1_287
*1636 DFFPOSX1_306
*1637 DFFPOSX1_307
*1638 DFFPOSX1_286
*1639 DFFPOSX1_415
*1640 CLK_bF_buf28
*1641 CLKBUF1_35
*1642 DFFPOSX1_163
*1643 DFFPOSX1_164
*1644 DFFPOSX1_179
*1645 DFFPOSX1_176
*1646 DFFPOSX1_178
*1647 DFFPOSX1_181
*1648 DFFPOSX1_493
*1649 DFFPOSX1_456
*1650 CLK_bF_buf27
*1651 CLKBUF1_36
*1652 DFFPOSX1_469
*1653 DFFPOSX1_280
*1654 DFFPOSX1_501
*1655 DFFPOSX1_497
*1656 DFFPOSX1_496
*1657 DFFPOSX1_466
*1658 DFFPOSX1_470
*1659 DFFPOSX1_283
*1660 CLK_bF_buf26
*1661 CLKBUF1_37
*1662 DFFPOSX1_401
*1663 DFFPOSX1_392
*1664 DFFPOSX1_404
*1665 DFFPOSX1_393
*1666 DFFPOSX1_390
*1667 DFFPOSX1_377
*1668 DFFPOSX1_394
*1669 DFFPOSX1_380
*1670 CLK_bF_buf25
*1671 CLKBUF1_38
*1672 DFFPOSX1_118
*1673 DFFPOSX1_209
*1674 DFFPOSX1_382
*1675 DFFPOSX1_407
*1676 DFFPOSX1_197
*1677 DFFPOSX1_385
*1678 DFFPOSX1_213
*1679 DFFPOSX1_221
*1680 CLK_bF_buf24
*1681 CLKBUF1_39
*1682 DFFPOSX1_430
*1683 DFFPOSX1_424
*1684 DFFPOSX1_427
*1685 DFFPOSX1_428
*1686 DFFPOSX1_156
*1687 DFFPOSX1_44
*1688 DFFPOSX1_42
*1689 DFFPOSX1_152
*1690 CLK_bF_buf23
*1691 CLKBUF1_40
*1692 DFFPOSX1_292
*1693 DFFPOSX1_304
*1694 DFFPOSX1_321
*1695 DFFPOSX1_319
*1696 DFFPOSX1_141
*1697 DFFPOSX1_29
*1698 DFFPOSX1_25
*1699 DFFPOSX1_343
*1700 CLK_bF_buf22
*1701 CLKBUF1_41
*1702 DFFPOSX1_484
*1703 DFFPOSX1_452
*1704 DFFPOSX1_174
*1705 DFFPOSX1_453
*1706 DFFPOSX1_485
*1707 DFFPOSX1_455
*1708 DFFPOSX1_487
*1709 DFFPOSX1_486
*1710 CLK_bF_buf21
*1711 CLKBUF1_42
*1712 DFFPOSX1_138
*1713 DFFPOSX1_322
*1714 DFFPOSX1_318
*1715 DFFPOSX1_26
*1716 DFFPOSX1_139
*1717 DFFPOSX1_27
*1718 DFFPOSX1_22
*1719 DFFPOSX1_124