*SPICE netlist created from BLIF module phoeniX by blif2BSpice
.include /usr/local/share/qflow/tech/osu018/osu018_stdcells.sp
.subckt phoeniX vdd gnd CLK reset instruction_memory_interface_data[0] instruction_memory_interface_data[1] instruction_memory_interface_data[2] instruction_memory_interface_data[3] instruction_memory_interface_data[4] instruction_memory_interface_data[5] instruction_memory_interface_data[6] instruction_memory_interface_data[7] instruction_memory_interface_data[8] instruction_memory_interface_data[9] instruction_memory_interface_data[10] instruction_memory_interface_data[11] instruction_memory_interface_data[12] instruction_memory_interface_data[13] instruction_memory_interface_data[14] instruction_memory_interface_data[15] instruction_memory_interface_data[16] instruction_memory_interface_data[17] instruction_memory_interface_data[18] instruction_memory_interface_data[19] instruction_memory_interface_data[20] instruction_memory_interface_data[21] instruction_memory_interface_data[22] instruction_memory_interface_data[23] instruction_memory_interface_data[24] instruction_memory_interface_data[25] instruction_memory_interface_data[26] instruction_memory_interface_data[27] instruction_memory_interface_data[28] instruction_memory_interface_data[29] instruction_memory_interface_data[30] instruction_memory_interface_data[31] data_memory_interface_data[0] data_memory_interface_data[1] data_memory_interface_data[2] data_memory_interface_data[3] data_memory_interface_data[4] data_memory_interface_data[5] data_memory_interface_data[6] data_memory_interface_data[7] data_memory_interface_data[8] data_memory_interface_data[9] data_memory_interface_data[10] data_memory_interface_data[11] data_memory_interface_data[12] data_memory_interface_data[13] data_memory_interface_data[14] data_memory_interface_data[15] data_memory_interface_data[16] data_memory_interface_data[17] data_memory_interface_data[18] data_memory_interface_data[19] data_memory_interface_data[20] data_memory_interface_data[21] data_memory_interface_data[22] data_memory_interface_data[23] data_memory_interface_data[24] data_memory_interface_data[25] data_memory_interface_data[26] data_memory_interface_data[27] data_memory_interface_data[28] data_memory_interface_data[29] data_memory_interface_data[30] data_memory_interface_data[31] instruction_memory_interface_enable instruction_memory_interface_state instruction_memory_interface_address[0] instruction_memory_interface_address[1] instruction_memory_interface_address[2] instruction_memory_interface_address[3] instruction_memory_interface_address[4] instruction_memory_interface_address[5] instruction_memory_interface_address[6] instruction_memory_interface_address[7] instruction_memory_interface_address[8] instruction_memory_interface_address[9] instruction_memory_interface_address[10] instruction_memory_interface_address[11] instruction_memory_interface_address[12] instruction_memory_interface_address[13] instruction_memory_interface_address[14] instruction_memory_interface_address[15] instruction_memory_interface_address[16] instruction_memory_interface_address[17] instruction_memory_interface_address[18] instruction_memory_interface_address[19] instruction_memory_interface_address[20] instruction_memory_interface_address[21] instruction_memory_interface_address[22] instruction_memory_interface_address[23] instruction_memory_interface_address[24] instruction_memory_interface_address[25] instruction_memory_interface_address[26] instruction_memory_interface_address[27] instruction_memory_interface_address[28] instruction_memory_interface_address[29] instruction_memory_interface_address[30] instruction_memory_interface_address[31] instruction_memory_interface_frame_mask[0] instruction_memory_interface_frame_mask[1] instruction_memory_interface_frame_mask[2] instruction_memory_interface_frame_mask[3] data_memory_interface_enable data_memory_interface_state data_memory_interface_address[0] data_memory_interface_address[1] data_memory_interface_address[2] data_memory_interface_address[3] data_memory_interface_address[4] data_memory_interface_address[5] data_memory_interface_address[6] data_memory_interface_address[7] data_memory_interface_address[8] data_memory_interface_address[9] data_memory_interface_address[10] data_memory_interface_address[11] data_memory_interface_address[12] data_memory_interface_address[13] data_memory_interface_address[14] data_memory_interface_address[15] data_memory_interface_address[16] data_memory_interface_address[17] data_memory_interface_address[18] data_memory_interface_address[19] data_memory_interface_address[20] data_memory_interface_address[21] data_memory_interface_address[22] data_memory_interface_address[23] data_memory_interface_address[24] data_memory_interface_address[25] data_memory_interface_address[26] data_memory_interface_address[27] data_memory_interface_address[28] data_memory_interface_address[29] data_memory_interface_address[30] data_memory_interface_address[31] data_memory_interface_frame_mask[0] data_memory_interface_frame_mask[1] data_memory_interface_frame_mask[2] data_memory_interface_frame_mask[3] data_memory_interface_data[0] data_memory_interface_data[1] data_memory_interface_data[2] data_memory_interface_data[3] data_memory_interface_data[4] data_memory_interface_data[5] data_memory_interface_data[6] data_memory_interface_data[7] data_memory_interface_data[8] data_memory_interface_data[9] data_memory_interface_data[10] data_memory_interface_data[11] data_memory_interface_data[12] data_memory_interface_data[13] data_memory_interface_data[14] data_memory_interface_data[15] data_memory_interface_data[16] data_memory_interface_data[17] data_memory_interface_data[18] data_memory_interface_data[19] data_memory_interface_data[20] data_memory_interface_data[21] data_memory_interface_data[22] data_memory_interface_data[23] data_memory_interface_data[24] data_memory_interface_data[25] data_memory_interface_data[26] data_memory_interface_data[27] data_memory_interface_data[28] data_memory_interface_data[29] data_memory_interface_data[30] data_memory_interface_data[31] 
XBUFX4_1 vdd gnd CLK CLK_hier0_bF$buf6 BUFX4
XBUFX4_2 vdd gnd CLK CLK_hier0_bF$buf5 BUFX4
XBUFX4_3 vdd gnd CLK CLK_hier0_bF$buf4 BUFX4
XBUFX4_4 vdd gnd CLK CLK_hier0_bF$buf3 BUFX4
XBUFX4_5 vdd gnd CLK CLK_hier0_bF$buf2 BUFX4
XBUFX4_6 vdd gnd CLK CLK_hier0_bF$buf1 BUFX4
XBUFX4_7 vdd gnd CLK CLK_hier0_bF$buf0 BUFX4
XBUFX4_8 vdd gnd _3955_ _3955__bF$buf3 BUFX4
XBUFX4_9 vdd gnd _3955_ _3955__bF$buf2 BUFX4
XBUFX4_10 vdd gnd _3955_ _3955__bF$buf1 BUFX4
XBUFX4_11 vdd gnd _3955_ _3955__bF$buf0 BUFX4
XBUFX4_12 vdd gnd _224_ _224__bF$buf4 BUFX4
XBUFX4_13 vdd gnd _224_ _224__bF$buf3 BUFX4
XBUFX4_14 vdd gnd _224_ _224__bF$buf2 BUFX4
XBUFX4_15 vdd gnd _224_ _224__bF$buf1 BUFX4
XBUFX4_16 vdd gnd _224_ _224__bF$buf0 BUFX4
XBUFX4_17 vdd gnd FW_enable_1 FW_enable_1_bF$buf7 BUFX4
XBUFX4_18 vdd gnd FW_enable_1 FW_enable_1_bF$buf6 BUFX4
XBUFX4_19 vdd gnd FW_enable_1 FW_enable_1_bF$buf5 BUFX4
XBUFX4_20 vdd gnd FW_enable_1 FW_enable_1_bF$buf4 BUFX4
XBUFX4_21 vdd gnd FW_enable_1 FW_enable_1_bF$buf3 BUFX4
XBUFX4_22 vdd gnd FW_enable_1 FW_enable_1_bF$buf2 BUFX4
XBUFX4_23 vdd gnd FW_enable_1 FW_enable_1_bF$buf1 BUFX4
XBUFX4_24 vdd gnd FW_enable_1 FW_enable_1_bF$buf0 BUFX4
XBUFX4_25 vdd gnd FW_enable_2 FW_enable_2_bF$buf7 BUFX4
XBUFX4_26 vdd gnd FW_enable_2 FW_enable_2_bF$buf6 BUFX4
XBUFX4_27 vdd gnd FW_enable_2 FW_enable_2_bF$buf5 BUFX4
XBUFX4_28 vdd gnd FW_enable_2 FW_enable_2_bF$buf4 BUFX4
XBUFX4_29 vdd gnd FW_enable_2 FW_enable_2_bF$buf3 BUFX4
XBUFX4_30 vdd gnd FW_enable_2 FW_enable_2_bF$buf2 BUFX4
XBUFX4_31 vdd gnd FW_enable_2 FW_enable_2_bF$buf1 BUFX4
XBUFX4_32 vdd gnd FW_enable_2 FW_enable_2_bF$buf0 BUFX4
XBUFX4_33 vdd gnd _3106_ _3106__bF$buf4 BUFX4
XBUFX4_34 vdd gnd _3106_ _3106__bF$buf3 BUFX4
XBUFX4_35 vdd gnd _3106_ _3106__bF$buf2 BUFX4
XBUFX4_36 vdd gnd _3106_ _3106__bF$buf1 BUFX4
XBUFX4_37 vdd gnd _3106_ _3106__bF$buf0 BUFX4
XBUFX4_38 vdd gnd _2585_ _2585__bF$buf6 BUFX4
XBUFX4_39 vdd gnd _2585_ _2585__bF$buf5 BUFX4
XBUFX4_40 vdd gnd _2585_ _2585__bF$buf4 BUFX4
XBUFX4_41 vdd gnd _2585_ _2585__bF$buf3 BUFX4
XBUFX4_42 vdd gnd _2585_ _2585__bF$buf2 BUFX4
XBUFX4_43 vdd gnd _2585_ _2585__bF$buf1 BUFX4
XBUFX4_44 vdd gnd _2585_ _2585__bF$buf0 BUFX4
XBUFX4_45 vdd gnd _194_ _194__bF$buf5 BUFX4
XBUFX4_46 vdd gnd _194_ _194__bF$buf4 BUFX4
XBUFX4_47 vdd gnd _194_ _194__bF$buf3 BUFX4
XBUFX4_48 vdd gnd _194_ _194__bF$buf2 BUFX4
XBUFX4_49 vdd gnd _194_ _194__bF$buf1 BUFX4
XBUFX4_50 vdd gnd _194_ _194__bF$buf0 BUFX4
XBUFX4_51 vdd gnd _2388_ _2388__bF$buf7 BUFX4
XBUFX4_52 vdd gnd _2388_ _2388__bF$buf6 BUFX4
XBUFX4_53 vdd gnd _2388_ _2388__bF$buf5 BUFX4
XBUFX4_54 vdd gnd _2388_ _2388__bF$buf4 BUFX4
XBUFX4_55 vdd gnd _2388_ _2388__bF$buf3 BUFX4
XBUFX4_56 vdd gnd _2388_ _2388__bF$buf2 BUFX4
XBUFX4_57 vdd gnd _2388_ _2388__bF$buf1 BUFX4
XBUFX4_58 vdd gnd _2388_ _2388__bF$buf0 BUFX4
XBUFX4_59 vdd gnd _3326_ _3326__bF$buf4 BUFX4
XBUFX4_60 vdd gnd _3326_ _3326__bF$buf3 BUFX4
XBUFX4_61 vdd gnd _3326_ _3326__bF$buf2 BUFX4
XBUFX4_62 vdd gnd _3326_ _3326__bF$buf1 BUFX4
XBUFX4_63 vdd gnd _3326_ _3326__bF$buf0 BUFX4
XBUFX4_64 vdd gnd _4111_ _4111__bF$buf3 BUFX4
XBUFX4_65 vdd gnd _4111_ _4111__bF$buf2 BUFX4
XBUFX4_66 vdd gnd _4111_ _4111__bF$buf1 BUFX4
XBUFX4_67 vdd gnd _4111_ _4111__bF$buf0 BUFX4
XBUFX4_68 vdd gnd _4108_ _4108__bF$buf3 BUFX4
XBUFX4_69 vdd gnd _4108_ _4108__bF$buf2 BUFX4
XBUFX4_70 vdd gnd _4108_ _4108__bF$buf1 BUFX4
XBUFX4_71 vdd gnd _4108_ _4108__bF$buf0 BUFX4
XBUFX4_72 vdd gnd _526_ _526__bF$buf4 BUFX4
XBUFX4_73 vdd gnd _526_ _526__bF$buf3 BUFX4
XBUFX4_74 vdd gnd _526_ _526__bF$buf2 BUFX4
XBUFX4_75 vdd gnd _526_ _526__bF$buf1 BUFX4
XBUFX4_76 vdd gnd _526_ _526__bF$buf0 BUFX4
XBUFX4_77 vdd gnd _2438_ _2438__bF$buf3 BUFX4
XBUFX4_78 vdd gnd _2438_ _2438__bF$buf2 BUFX4
XBUFX4_79 vdd gnd _2438_ _2438__bF$buf1 BUFX4
XBUFX4_80 vdd gnd _2438_ _2438__bF$buf0 BUFX4
XBUFX4_81 vdd gnd _2664_ _2664__bF$buf4 BUFX4
XBUFX4_82 vdd gnd _2664_ _2664__bF$buf3 BUFX4
XBUFX4_83 vdd gnd _2664_ _2664__bF$buf2 BUFX4
XBUFX4_84 vdd gnd _2664_ _2664__bF$buf1 BUFX4
XBUFX4_85 vdd gnd _2664_ _2664__bF$buf0 BUFX4
XBUFX4_86 vdd gnd _2699_ _2699__bF$buf3 BUFX4
XBUFX4_87 vdd gnd _2699_ _2699__bF$buf2 BUFX4
XBUFX4_88 vdd gnd _2699_ _2699__bF$buf1 BUFX4
XBUFX4_89 vdd gnd _2699_ _2699__bF$buf0 BUFX4
XBUFX4_90 vdd gnd _2717_ _2717__bF$buf3 BUFX4
XBUFX4_91 vdd gnd _2717_ _2717__bF$buf2 BUFX4
XBUFX4_92 vdd gnd _2717_ _2717__bF$buf1 BUFX4
XBUFX4_93 vdd gnd _2717_ _2717__bF$buf0 BUFX4
XBUFX4_94 vdd gnd _3343_ _3343__bF$buf4 BUFX4
XBUFX4_95 vdd gnd _3343_ _3343__bF$buf3 BUFX4
XBUFX4_96 vdd gnd _3343_ _3343__bF$buf2 BUFX4
XBUFX4_97 vdd gnd _3343_ _3343__bF$buf1 BUFX4
XBUFX4_98 vdd gnd _3343_ _3343__bF$buf0 BUFX4
XBUFX4_99 vdd gnd _3334_ _3334__bF$buf4 BUFX4
XBUFX4_100 vdd gnd _3334_ _3334__bF$buf3 BUFX4
XBUFX4_101 vdd gnd _3334_ _3334__bF$buf2 BUFX4
XBUFX4_102 vdd gnd _3334_ _3334__bF$buf1 BUFX4
XBUFX4_103 vdd gnd _3334_ _3334__bF$buf0 BUFX4
XBUFX4_104 vdd gnd _3983_ _3983__bF$buf5 BUFX4
XBUFX4_105 vdd gnd _3983_ _3983__bF$buf4 BUFX4
XBUFX4_106 vdd gnd _3983_ _3983__bF$buf3 BUFX4
XBUFX4_107 vdd gnd _3983_ _3983__bF$buf2 BUFX4
XBUFX4_108 vdd gnd _3983_ _3983__bF$buf1 BUFX4
XBUFX4_109 vdd gnd _3983_ _3983__bF$buf0 BUFX4
XBUFX4_110 vdd gnd _193_ _193__bF$buf4 BUFX4
XBUFX4_111 vdd gnd _193_ _193__bF$buf3 BUFX4
XBUFX4_112 vdd gnd _193_ _193__bF$buf2 BUFX4
XBUFX4_113 vdd gnd _193_ _193__bF$buf1 BUFX4
XBUFX4_114 vdd gnd _193_ _193__bF$buf0 BUFX4
XBUFX4_115 vdd gnd _3980_ _3980__bF$buf3 BUFX4
XBUFX4_116 vdd gnd _3980_ _3980__bF$buf2 BUFX4
XBUFX4_117 vdd gnd _3980_ _3980__bF$buf1 BUFX4
XBUFX4_118 vdd gnd _3980_ _3980__bF$buf0 BUFX4
XBUFX4_119 vdd gnd _3328_ _3328__bF$buf4 BUFX4
XBUFX4_120 vdd gnd _3328_ _3328__bF$buf3 BUFX4
XBUFX4_121 vdd gnd _3328_ _3328__bF$buf2 BUFX4
XBUFX4_122 vdd gnd _3328_ _3328__bF$buf1 BUFX4
XBUFX4_123 vdd gnd _3328_ _3328__bF$buf0 BUFX4
XBUFX4_124 vdd gnd _2446_ _2446__bF$buf6 BUFX4
XBUFX4_125 vdd gnd _2446_ _2446__bF$buf5 BUFX4
XBUFX4_126 vdd gnd _2446_ _2446__bF$buf4 BUFX4
XBUFX4_127 vdd gnd _2446_ _2446__bF$buf3 BUFX4
XBUFX4_128 vdd gnd _2446_ _2446__bF$buf2 BUFX4
XBUFX4_129 vdd gnd _2446_ _2446__bF$buf1 BUFX4
XBUFX4_130 vdd gnd _2446_ _2446__bF$buf0 BUFX4
XBUFX4_131 vdd gnd _3078_ _3078__bF$buf4 BUFX4
XBUFX4_132 vdd gnd _3078_ _3078__bF$buf3 BUFX4
XBUFX4_133 vdd gnd _3078_ _3078__bF$buf2 BUFX4
XBUFX4_134 vdd gnd _3078_ _3078__bF$buf1 BUFX4
XBUFX4_135 vdd gnd _3078_ _3078__bF$buf0 BUFX4
XBUFX4_136 vdd gnd _187_ _187__bF$buf4 BUFX4
XBUFX4_137 vdd gnd _187_ _187__bF$buf3 BUFX4
XBUFX4_138 vdd gnd _187_ _187__bF$buf2 BUFX4
XBUFX4_139 vdd gnd _187_ _187__bF$buf1 BUFX4
XBUFX4_140 vdd gnd _187_ _187__bF$buf0 BUFX4
XBUFX4_141 vdd gnd _337_ _337__bF$buf4 BUFX4
XBUFX4_142 vdd gnd _337_ _337__bF$buf3 BUFX4
XBUFX4_143 vdd gnd _337_ _337__bF$buf2 BUFX4
XBUFX4_144 vdd gnd _337_ _337__bF$buf1 BUFX4
XBUFX4_145 vdd gnd _337_ _337__bF$buf0 BUFX4
XBUFX4_146 vdd gnd _566_ _566__bF$buf5 BUFX4
XBUFX4_147 vdd gnd _566_ _566__bF$buf4 BUFX4
XBUFX4_148 vdd gnd _566_ _566__bF$buf3 BUFX4
XBUFX4_149 vdd gnd _566_ _566__bF$buf2 BUFX4
XBUFX4_150 vdd gnd _566_ _566__bF$buf1 BUFX4
XBUFX4_151 vdd gnd _566_ _566__bF$buf0 BUFX4
XBUFX4_152 vdd gnd _2722_ _2722__bF$buf3 BUFX4
XBUFX4_153 vdd gnd _2722_ _2722__bF$buf2 BUFX4
XBUFX4_154 vdd gnd _2722_ _2722__bF$buf1 BUFX4
XBUFX4_155 vdd gnd _2722_ _2722__bF$buf0 BUFX4
XBUFX4_156 vdd gnd _29_ _29__bF$buf7 BUFX4
XBUFX4_157 vdd gnd _29_ _29__bF$buf6 BUFX4
XBUFX4_158 vdd gnd _29_ _29__bF$buf5 BUFX4
XBUFX4_159 vdd gnd _29_ _29__bF$buf4 BUFX4
XBUFX4_160 vdd gnd _29_ _29__bF$buf3 BUFX4
XBUFX4_161 vdd gnd _29_ _29__bF$buf2 BUFX4
XBUFX4_162 vdd gnd _29_ _29__bF$buf1 BUFX4
XBUFX4_163 vdd gnd _29_ _29__bF$buf0 BUFX4
XBUFX4_164 vdd gnd _3354_ _3354__bF$buf4 BUFX4
XBUFX4_165 vdd gnd _3354_ _3354__bF$buf3 BUFX4
XBUFX4_166 vdd gnd _3354_ _3354__bF$buf2 BUFX4
XBUFX4_167 vdd gnd _3354_ _3354__bF$buf1 BUFX4
XBUFX4_168 vdd gnd _3354_ _3354__bF$buf0 BUFX4
XBUFX4_169 vdd gnd _4139_ _4139__bF$buf3 BUFX4
XBUFX4_170 vdd gnd _4139_ _4139__bF$buf2 BUFX4
XBUFX4_171 vdd gnd _4139_ _4139__bF$buf1 BUFX4
XBUFX4_172 vdd gnd _4139_ _4139__bF$buf0 BUFX4
XBUFX4_173 vdd gnd _2663_ _2663__bF$buf3 BUFX4
XBUFX4_174 vdd gnd _2663_ _2663__bF$buf2 BUFX4
XBUFX4_175 vdd gnd _2663_ _2663__bF$buf1 BUFX4
XBUFX4_176 vdd gnd _2663_ _2663__bF$buf0 BUFX4
XBUFX4_177 vdd gnd _2090_ _2090__bF$buf4 BUFX4
XBUFX4_178 vdd gnd _2090_ _2090__bF$buf3 BUFX4
XBUFX4_179 vdd gnd _2090_ _2090__bF$buf2 BUFX4
XBUFX4_180 vdd gnd _2090_ _2090__bF$buf1 BUFX4
XBUFX4_181 vdd gnd _2090_ _2090__bF$buf0 BUFX4
XBUFX4_182 vdd gnd _99_ _99__bF$buf4 BUFX4
XBUFX4_183 vdd gnd _99_ _99__bF$buf3 BUFX4
XBUFX4_184 vdd gnd _99_ _99__bF$buf2 BUFX4
XBUFX4_185 vdd gnd _99_ _99__bF$buf1 BUFX4
XBUFX4_186 vdd gnd _99_ _99__bF$buf0 BUFX4
XCLKBUF1_1 CLK_hier0_bF$buf1 vdd gnd CLK_bF$buf62 CLKBUF1
XCLKBUF1_2 CLK_hier0_bF$buf1 vdd gnd CLK_bF$buf61 CLKBUF1
XCLKBUF1_3 CLK_hier0_bF$buf3 vdd gnd CLK_bF$buf60 CLKBUF1
XCLKBUF1_4 CLK_hier0_bF$buf1 vdd gnd CLK_bF$buf59 CLKBUF1
XCLKBUF1_5 CLK_hier0_bF$buf2 vdd gnd CLK_bF$buf58 CLKBUF1
XCLKBUF1_6 CLK_hier0_bF$buf2 vdd gnd CLK_bF$buf57 CLKBUF1
XCLKBUF1_7 CLK_hier0_bF$buf4 vdd gnd CLK_bF$buf56 CLKBUF1
XCLKBUF1_8 CLK_hier0_bF$buf5 vdd gnd CLK_bF$buf55 CLKBUF1
XCLKBUF1_9 CLK_hier0_bF$buf6 vdd gnd CLK_bF$buf54 CLKBUF1
XCLKBUF1_10 CLK_hier0_bF$buf4 vdd gnd CLK_bF$buf53 CLKBUF1
XCLKBUF1_11 CLK_hier0_bF$buf6 vdd gnd CLK_bF$buf52 CLKBUF1
XCLKBUF1_12 CLK_hier0_bF$buf1 vdd gnd CLK_bF$buf51 CLKBUF1
XCLKBUF1_13 CLK_hier0_bF$buf2 vdd gnd CLK_bF$buf50 CLKBUF1
XCLKBUF1_14 CLK_hier0_bF$buf4 vdd gnd CLK_bF$buf49 CLKBUF1
XCLKBUF1_15 CLK_hier0_bF$buf0 vdd gnd CLK_bF$buf48 CLKBUF1
XCLKBUF1_16 CLK_hier0_bF$buf5 vdd gnd CLK_bF$buf47 CLKBUF1
XCLKBUF1_17 CLK_hier0_bF$buf1 vdd gnd CLK_bF$buf46 CLKBUF1
XCLKBUF1_18 CLK_hier0_bF$buf1 vdd gnd CLK_bF$buf45 CLKBUF1
XCLKBUF1_19 CLK_hier0_bF$buf3 vdd gnd CLK_bF$buf44 CLKBUF1
XCLKBUF1_20 CLK_hier0_bF$buf6 vdd gnd CLK_bF$buf43 CLKBUF1
XCLKBUF1_21 CLK_hier0_bF$buf0 vdd gnd CLK_bF$buf42 CLKBUF1
XCLKBUF1_22 CLK_hier0_bF$buf5 vdd gnd CLK_bF$buf41 CLKBUF1
XCLKBUF1_23 CLK_hier0_bF$buf5 vdd gnd CLK_bF$buf40 CLKBUF1
XCLKBUF1_24 CLK_hier0_bF$buf6 vdd gnd CLK_bF$buf39 CLKBUF1
XCLKBUF1_25 CLK_hier0_bF$buf1 vdd gnd CLK_bF$buf38 CLKBUF1
XCLKBUF1_26 CLK_hier0_bF$buf4 vdd gnd CLK_bF$buf37 CLKBUF1
XCLKBUF1_27 CLK_hier0_bF$buf2 vdd gnd CLK_bF$buf36 CLKBUF1
XCLKBUF1_28 CLK_hier0_bF$buf5 vdd gnd CLK_bF$buf35 CLKBUF1
XCLKBUF1_29 CLK_hier0_bF$buf5 vdd gnd CLK_bF$buf34 CLKBUF1
XCLKBUF1_30 CLK_hier0_bF$buf3 vdd gnd CLK_bF$buf33 CLKBUF1
XCLKBUF1_31 CLK_hier0_bF$buf3 vdd gnd CLK_bF$buf32 CLKBUF1
XCLKBUF1_32 CLK_hier0_bF$buf1 vdd gnd CLK_bF$buf31 CLKBUF1
XCLKBUF1_33 CLK_hier0_bF$buf4 vdd gnd CLK_bF$buf30 CLKBUF1
XCLKBUF1_34 CLK_hier0_bF$buf6 vdd gnd CLK_bF$buf29 CLKBUF1
XCLKBUF1_35 CLK_hier0_bF$buf4 vdd gnd CLK_bF$buf28 CLKBUF1
XCLKBUF1_36 CLK_hier0_bF$buf2 vdd gnd CLK_bF$buf27 CLKBUF1
XCLKBUF1_37 CLK_hier0_bF$buf0 vdd gnd CLK_bF$buf26 CLKBUF1
XCLKBUF1_38 CLK_hier0_bF$buf5 vdd gnd CLK_bF$buf25 CLKBUF1
XCLKBUF1_39 CLK_hier0_bF$buf6 vdd gnd CLK_bF$buf24 CLKBUF1
XCLKBUF1_40 CLK_hier0_bF$buf6 vdd gnd CLK_bF$buf23 CLKBUF1
XCLKBUF1_41 CLK_hier0_bF$buf4 vdd gnd CLK_bF$buf22 CLKBUF1
XCLKBUF1_42 CLK_hier0_bF$buf3 vdd gnd CLK_bF$buf21 CLKBUF1
XCLKBUF1_43 CLK_hier0_bF$buf3 vdd gnd CLK_bF$buf20 CLKBUF1
XCLKBUF1_44 CLK_hier0_bF$buf2 vdd gnd CLK_bF$buf19 CLKBUF1
XCLKBUF1_45 CLK_hier0_bF$buf4 vdd gnd CLK_bF$buf18 CLKBUF1
XCLKBUF1_46 CLK_hier0_bF$buf0 vdd gnd CLK_bF$buf17 CLKBUF1
XCLKBUF1_47 CLK_hier0_bF$buf2 vdd gnd CLK_bF$buf16 CLKBUF1
XCLKBUF1_48 CLK_hier0_bF$buf0 vdd gnd CLK_bF$buf15 CLKBUF1
XCLKBUF1_49 CLK_hier0_bF$buf6 vdd gnd CLK_bF$buf14 CLKBUF1
XCLKBUF1_50 CLK_hier0_bF$buf0 vdd gnd CLK_bF$buf13 CLKBUF1
XCLKBUF1_51 CLK_hier0_bF$buf3 vdd gnd CLK_bF$buf12 CLKBUF1
XCLKBUF1_52 CLK_hier0_bF$buf2 vdd gnd CLK_bF$buf11 CLKBUF1
XCLKBUF1_53 CLK_hier0_bF$buf0 vdd gnd CLK_bF$buf10 CLKBUF1
XCLKBUF1_54 CLK_hier0_bF$buf4 vdd gnd CLK_bF$buf9 CLKBUF1
XCLKBUF1_55 CLK_hier0_bF$buf3 vdd gnd CLK_bF$buf8 CLKBUF1
XCLKBUF1_56 CLK_hier0_bF$buf2 vdd gnd CLK_bF$buf7 CLKBUF1
XCLKBUF1_57 CLK_hier0_bF$buf0 vdd gnd CLK_bF$buf6 CLKBUF1
XCLKBUF1_58 CLK_hier0_bF$buf1 vdd gnd CLK_bF$buf5 CLKBUF1
XCLKBUF1_59 CLK_hier0_bF$buf6 vdd gnd CLK_bF$buf4 CLKBUF1
XCLKBUF1_60 CLK_hier0_bF$buf5 vdd gnd CLK_bF$buf3 CLKBUF1
XCLKBUF1_61 CLK_hier0_bF$buf3 vdd gnd CLK_bF$buf2 CLKBUF1
XCLKBUF1_62 CLK_hier0_bF$buf5 vdd gnd CLK_bF$buf1 CLKBUF1
XCLKBUF1_63 CLK_hier0_bF$buf0 vdd gnd CLK_bF$buf0 CLKBUF1
XBUFX4_187 vdd gnd _2713_ _2713__bF$buf3 BUFX4
XBUFX4_188 vdd gnd _2713_ _2713__bF$buf2 BUFX4
XBUFX4_189 vdd gnd _2713_ _2713__bF$buf1 BUFX4
XBUFX4_190 vdd gnd _2713_ _2713__bF$buf0 BUFX4
XBUFX4_191 vdd gnd _96_ _96__bF$buf4 BUFX4
XBUFX4_192 vdd gnd _96_ _96__bF$buf3 BUFX4
XBUFX4_193 vdd gnd _96_ _96__bF$buf2 BUFX4
XBUFX4_194 vdd gnd _96_ _96__bF$buf1 BUFX4
XBUFX4_195 vdd gnd _96_ _96__bF$buf0 BUFX4
XBUFX4_196 vdd gnd _225_ _225__bF$buf4 BUFX4
XBUFX4_197 vdd gnd _225_ _225__bF$buf3 BUFX4
XBUFX4_198 vdd gnd _225_ _225__bF$buf2 BUFX4
XBUFX4_199 vdd gnd _225_ _225__bF$buf1 BUFX4
XBUFX4_200 vdd gnd _225_ _225__bF$buf0 BUFX4
XBUFX4_201 vdd gnd _3095_ _3095__bF$buf4 BUFX4
XBUFX4_202 vdd gnd _3095_ _3095__bF$buf3 BUFX4
XBUFX4_203 vdd gnd _3095_ _3095__bF$buf2 BUFX4
XBUFX4_204 vdd gnd _3095_ _3095__bF$buf1 BUFX4
XBUFX4_205 vdd gnd _3095_ _3095__bF$buf0 BUFX4
XBUFX4_206 vdd gnd _3086_ _3086__bF$buf4 BUFX4
XBUFX4_207 vdd gnd _3086_ _3086__bF$buf3 BUFX4
XBUFX4_208 vdd gnd _3086_ _3086__bF$buf2 BUFX4
XBUFX4_209 vdd gnd _3086_ _3086__bF$buf1 BUFX4
XBUFX4_210 vdd gnd _3086_ _3086__bF$buf0 BUFX4
XBUFX4_211 vdd gnd _2395_ _2395__bF$buf6 BUFX4
XBUFX4_212 vdd gnd _2395_ _2395__bF$buf5 BUFX4
XBUFX4_213 vdd gnd _2395_ _2395__bF$buf4 BUFX4
XBUFX4_214 vdd gnd _2395_ _2395__bF$buf3 BUFX4
XBUFX4_215 vdd gnd _2395_ _2395__bF$buf2 BUFX4
XBUFX4_216 vdd gnd _2395_ _2395__bF$buf1 BUFX4
XBUFX4_217 vdd gnd _2395_ _2395__bF$buf0 BUFX4
XBUFX4_218 vdd gnd _3080_ _3080__bF$buf4 BUFX4
XBUFX4_219 vdd gnd _3080_ _3080__bF$buf3 BUFX4
XBUFX4_220 vdd gnd _3080_ _3080__bF$buf2 BUFX4
XBUFX4_221 vdd gnd _3080_ _3080__bF$buf1 BUFX4
XBUFX4_222 vdd gnd _3080_ _3080__bF$buf0 BUFX4
XBUFX4_223 vdd gnd _2407_ _2407__bF$buf7 BUFX4
XBUFX4_224 vdd gnd _2407_ _2407__bF$buf6 BUFX4
XBUFX4_225 vdd gnd _2407_ _2407__bF$buf5 BUFX4
XBUFX4_226 vdd gnd _2407_ _2407__bF$buf4 BUFX4
XBUFX4_227 vdd gnd _2407_ _2407__bF$buf3 BUFX4
XBUFX4_228 vdd gnd _2407_ _2407__bF$buf2 BUFX4
XBUFX4_229 vdd gnd _2407_ _2407__bF$buf1 BUFX4
XBUFX4_230 vdd gnd _2407_ _2407__bF$buf0 BUFX4
XBUFX4_231 vdd gnd _571_ _571__bF$buf4 BUFX4
XBUFX4_232 vdd gnd _571_ _571__bF$buf3 BUFX4
XBUFX4_233 vdd gnd _571_ _571__bF$buf2 BUFX4
XBUFX4_234 vdd gnd _571_ _571__bF$buf1 BUFX4
XBUFX4_235 vdd gnd _571_ _571__bF$buf0 BUFX4
XBUFX4_236 vdd gnd _336_ _336__bF$buf4 BUFX4
XBUFX4_237 vdd gnd _336_ _336__bF$buf3 BUFX4
XBUFX4_238 vdd gnd _336_ _336__bF$buf2 BUFX4
XBUFX4_239 vdd gnd _336_ _336__bF$buf1 BUFX4
XBUFX4_240 vdd gnd _336_ _336__bF$buf0 BUFX4
XBUFX4_241 vdd gnd fetch_unit.jump_branch_enable fetch_unit.jump_branch_enable_bF$buf8 BUFX4
XBUFX4_242 vdd gnd fetch_unit.jump_branch_enable fetch_unit.jump_branch_enable_bF$buf7 BUFX4
XBUFX4_243 vdd gnd fetch_unit.jump_branch_enable fetch_unit.jump_branch_enable_bF$buf6 BUFX4
XBUFX4_244 vdd gnd fetch_unit.jump_branch_enable fetch_unit.jump_branch_enable_bF$buf5 BUFX4
XBUFX4_245 vdd gnd fetch_unit.jump_branch_enable fetch_unit.jump_branch_enable_bF$buf4 BUFX4
XBUFX4_246 vdd gnd fetch_unit.jump_branch_enable fetch_unit.jump_branch_enable_bF$buf3 BUFX4
XBUFX4_247 vdd gnd fetch_unit.jump_branch_enable fetch_unit.jump_branch_enable_bF$buf2 BUFX4
XBUFX4_248 vdd gnd fetch_unit.jump_branch_enable fetch_unit.jump_branch_enable_bF$buf1 BUFX4
XBUFX4_249 vdd gnd fetch_unit.jump_branch_enable fetch_unit.jump_branch_enable_bF$buf0 BUFX4
XBUFX4_250 vdd gnd _4141_ _4141__bF$buf4 BUFX4
XBUFX4_251 vdd gnd _4141_ _4141__bF$buf3 BUFX4
XBUFX4_252 vdd gnd _4141_ _4141__bF$buf2 BUFX4
XBUFX4_253 vdd gnd _4141_ _4141__bF$buf1 BUFX4
XBUFX4_254 vdd gnd _4141_ _4141__bF$buf0 BUFX4
XBUFX4_255 vdd gnd _330_ _330__bF$buf4 BUFX4
XBUFX4_256 vdd gnd _330_ _330__bF$buf3 BUFX4
XBUFX4_257 vdd gnd _330_ _330__bF$buf2 BUFX4
XBUFX4_258 vdd gnd _330_ _330__bF$buf1 BUFX4
XBUFX4_259 vdd gnd _330_ _330__bF$buf0 BUFX4
XBUFX4_260 vdd gnd _3600_ _3600__bF$buf3 BUFX4
XBUFX4_261 vdd gnd _3600_ _3600__bF$buf2 BUFX4
XBUFX4_262 vdd gnd _3600_ _3600__bF$buf1 BUFX4
XBUFX4_263 vdd gnd _3600_ _3600__bF$buf0 BUFX4
XBUFX4_264 vdd gnd _2086_ _2086__bF$buf4 BUFX4
XBUFX4_265 vdd gnd _2086_ _2086__bF$buf3 BUFX4
XBUFX4_266 vdd gnd _2086_ _2086__bF$buf2 BUFX4
XBUFX4_267 vdd gnd _2086_ _2086__bF$buf1 BUFX4
XBUFX4_268 vdd gnd _2086_ _2086__bF$buf0 BUFX4
XBUFX4_269 vdd gnd _98_ _98__bF$buf4 BUFX4
XBUFX4_270 vdd gnd _98_ _98__bF$buf3 BUFX4
XBUFX4_271 vdd gnd _98_ _98__bF$buf2 BUFX4
XBUFX4_272 vdd gnd _98_ _98__bF$buf1 BUFX4
XBUFX4_273 vdd gnd _98_ _98__bF$buf0 BUFX4
XBUFX4_274 vdd gnd _2694_ _2694__bF$buf3 BUFX4
XBUFX4_275 vdd gnd _2694_ _2694__bF$buf2 BUFX4
XBUFX4_276 vdd gnd _2694_ _2694__bF$buf1 BUFX4
XBUFX4_277 vdd gnd _2694_ _2694__bF$buf0 BUFX4
XINVX8_1 vdd gnd reset _526_ INVX8
XINVX1_1 gnd _408_ vdd gnd INVX1
XNAND2X1_1 vdd _409_ gnd FW_source_1[0] FW_enable_1_bF$buf4 NAND2X1
XOAI21X1_1 gnd vdd _408_ FW_enable_1_bF$buf1 bus_rs1_decode_wire[0] _409_ OAI21X1
XINVX1_2 gnd _410_ vdd gnd INVX1
XNAND2X1_2 vdd _411_ gnd FW_enable_1_bF$buf1 FW_source_1[1] NAND2X1
XOAI21X1_2 gnd vdd _410_ FW_enable_1_bF$buf1 bus_rs1_decode_wire[1] _411_ OAI21X1
XINVX1_3 gnd _412_ vdd gnd INVX1
XNAND2X1_3 vdd _413_ gnd FW_enable_1_bF$buf0 FW_source_1[2] NAND2X1
XOAI21X1_3 gnd vdd _412_ FW_enable_1_bF$buf3 bus_rs1_decode_wire[2] _413_ OAI21X1
XINVX1_4 gnd _414_ vdd gnd INVX1
XNAND2X1_4 vdd _415_ gnd FW_enable_1_bF$buf6 FW_source_1[3] NAND2X1
XOAI21X1_4 gnd vdd _414_ FW_enable_1_bF$buf6 bus_rs1_decode_wire[3] _415_ OAI21X1
XINVX1_5 gnd _416_ vdd gnd INVX1
XNAND2X1_5 vdd _417_ gnd FW_enable_1_bF$buf3 FW_source_1[4] NAND2X1
XOAI21X1_5 gnd vdd _416_ FW_enable_1_bF$buf3 bus_rs1_decode_wire[4] _417_ OAI21X1
XINVX1_6 gnd _418_ vdd gnd INVX1
XNAND2X1_6 vdd _419_ gnd FW_enable_1_bF$buf5 FW_source_1[5] NAND2X1
XOAI21X1_6 gnd vdd _418_ FW_enable_1_bF$buf0 bus_rs1_decode_wire[5] _419_ OAI21X1
XINVX1_7 gnd _420_ vdd gnd INVX1
XNAND2X1_7 vdd _421_ gnd FW_enable_1_bF$buf7 FW_source_1[6] NAND2X1
XOAI21X1_7 gnd vdd _420_ FW_enable_1_bF$buf0 bus_rs1_decode_wire[6] _421_ OAI21X1
XINVX1_8 gnd _422_ vdd gnd INVX1
XNAND2X1_8 vdd _423_ gnd FW_enable_1_bF$buf7 FW_source_1[7] NAND2X1
XOAI21X1_8 gnd vdd _422_ FW_enable_1_bF$buf1 bus_rs1_decode_wire[7] _423_ OAI21X1
XINVX1_9 gnd _424_ vdd gnd INVX1
XNAND2X1_9 vdd _425_ gnd FW_enable_1_bF$buf7 FW_source_1[8] NAND2X1
XOAI21X1_9 gnd vdd _424_ FW_enable_1_bF$buf7 bus_rs1_decode_wire[8] _425_ OAI21X1
XINVX1_10 gnd _426_ vdd gnd INVX1
XNAND2X1_10 vdd _427_ gnd FW_enable_1_bF$buf4 FW_source_1[9] NAND2X1
XOAI21X1_10 gnd vdd _426_ FW_enable_1_bF$buf1 bus_rs1_decode_wire[9] _427_ OAI21X1
XINVX1_11 gnd _428_ vdd gnd INVX1
XNAND2X1_11 vdd _429_ gnd FW_enable_1_bF$buf4 FW_source_1[10] NAND2X1
XOAI21X1_11 gnd vdd _428_ FW_enable_1_bF$buf2 bus_rs1_decode_wire[10] _429_ OAI21X1
XINVX1_12 gnd _430_ vdd gnd INVX1
XNAND2X1_12 vdd _431_ gnd FW_enable_1_bF$buf2 FW_source_1[11] NAND2X1
XOAI21X1_12 gnd vdd _430_ FW_enable_1_bF$buf2 bus_rs1_decode_wire[11] _431_ OAI21X1
XINVX1_13 gnd _432_ vdd gnd INVX1
XNAND2X1_13 vdd _433_ gnd FW_enable_1_bF$buf7 FW_source_1[12] NAND2X1
XOAI21X1_13 gnd vdd _432_ FW_enable_1_bF$buf1 bus_rs1_decode_wire[12] _433_ OAI21X1
XINVX1_14 gnd _434_ vdd gnd INVX1
XNAND2X1_14 vdd _435_ gnd FW_enable_1_bF$buf7 FW_source_1[13] NAND2X1
XOAI21X1_14 gnd vdd _434_ FW_enable_1_bF$buf1 bus_rs1_decode_wire[13] _435_ OAI21X1
XINVX1_15 gnd _436_ vdd gnd INVX1
XNAND2X1_15 vdd _437_ gnd FW_enable_1_bF$buf5 FW_source_1[14] NAND2X1
XOAI21X1_15 gnd vdd _436_ FW_enable_1_bF$buf5 bus_rs1_decode_wire[14] _437_ OAI21X1
XINVX1_16 gnd _438_ vdd gnd INVX1
XNAND2X1_16 vdd _439_ gnd FW_enable_1_bF$buf5 FW_source_1[15] NAND2X1
XOAI21X1_16 gnd vdd _438_ FW_enable_1_bF$buf1 bus_rs1_decode_wire[15] _439_ OAI21X1
XINVX1_17 gnd _440_ vdd gnd INVX1
XNAND2X1_17 vdd _441_ gnd FW_enable_1_bF$buf0 FW_source_1[16] NAND2X1
XOAI21X1_17 gnd vdd _440_ FW_enable_1_bF$buf0 bus_rs1_decode_wire[16] _441_ OAI21X1
XINVX1_18 gnd _442_ vdd gnd INVX1
XNAND2X1_18 vdd _443_ gnd FW_enable_1_bF$buf6 FW_source_1[17] NAND2X1
XOAI21X1_18 gnd vdd _442_ FW_enable_1_bF$buf6 bus_rs1_decode_wire[17] _443_ OAI21X1
XINVX1_19 gnd _444_ vdd gnd INVX1
XNAND2X1_19 vdd _445_ gnd FW_enable_1_bF$buf5 FW_source_1[18] NAND2X1
XOAI21X1_19 gnd vdd _444_ FW_enable_1_bF$buf5 bus_rs1_decode_wire[18] _445_ OAI21X1
XINVX1_20 gnd _446_ vdd gnd INVX1
XNAND2X1_20 vdd _447_ gnd FW_enable_1_bF$buf0 FW_source_1[19] NAND2X1
XOAI21X1_20 gnd vdd _446_ FW_enable_1_bF$buf0 bus_rs1_decode_wire[19] _447_ OAI21X1
XINVX1_21 gnd _448_ vdd gnd INVX1
XNAND2X1_21 vdd _449_ gnd FW_enable_1_bF$buf6 FW_source_1[20] NAND2X1
XOAI21X1_21 gnd vdd _448_ FW_enable_1_bF$buf6 bus_rs1_decode_wire[20] _449_ OAI21X1
XINVX1_22 gnd _450_ vdd gnd INVX1
XNAND2X1_22 vdd _451_ gnd FW_enable_1_bF$buf0 FW_source_1[21] NAND2X1
XOAI21X1_22 gnd vdd _450_ FW_enable_1_bF$buf6 bus_rs1_decode_wire[21] _451_ OAI21X1
XINVX1_23 gnd _452_ vdd gnd INVX1
XNAND2X1_23 vdd _453_ gnd FW_enable_1_bF$buf6 FW_source_1[22] NAND2X1
XOAI21X1_23 gnd vdd _452_ FW_enable_1_bF$buf3 bus_rs1_decode_wire[22] _453_ OAI21X1
XINVX1_24 gnd _454_ vdd gnd INVX1
XNAND2X1_24 vdd _455_ gnd FW_enable_1_bF$buf3 FW_source_1[23] NAND2X1
XOAI21X1_24 gnd vdd _454_ FW_enable_1_bF$buf3 bus_rs1_decode_wire[23] _455_ OAI21X1
XINVX1_25 gnd _456_ vdd gnd INVX1
XNAND2X1_25 vdd _457_ gnd FW_enable_1_bF$buf3 FW_source_1[24] NAND2X1
XOAI21X1_25 gnd vdd _456_ FW_enable_1_bF$buf3 bus_rs1_decode_wire[24] _457_ OAI21X1
XINVX1_26 gnd _458_ vdd gnd INVX1
XNAND2X1_26 vdd _459_ gnd FW_enable_1_bF$buf7 FW_source_1[25] NAND2X1
XOAI21X1_26 gnd vdd _458_ FW_enable_1_bF$buf7 bus_rs1_decode_wire[25] _459_ OAI21X1
XINVX1_27 gnd _460_ vdd gnd INVX1
XNAND2X1_27 vdd _461_ gnd FW_enable_1_bF$buf5 FW_source_1[26] NAND2X1
XOAI21X1_27 gnd vdd _460_ FW_enable_1_bF$buf5 bus_rs1_decode_wire[26] _461_ OAI21X1
XINVX1_28 gnd _462_ vdd gnd INVX1
XNAND2X1_28 vdd _463_ gnd FW_enable_1_bF$buf2 FW_source_1[27] NAND2X1
XOAI21X1_28 gnd vdd _462_ FW_enable_1_bF$buf2 bus_rs1_decode_wire[27] _463_ OAI21X1
XINVX1_29 gnd _464_ vdd gnd INVX1
XNAND2X1_29 vdd _465_ gnd FW_enable_1_bF$buf2 FW_source_1[28] NAND2X1
XOAI21X1_29 gnd vdd _464_ FW_enable_1_bF$buf2 bus_rs1_decode_wire[28] _465_ OAI21X1
XINVX1_30 gnd _466_ vdd gnd INVX1
XNAND2X1_30 vdd _467_ gnd FW_enable_1_bF$buf4 FW_source_1[29] NAND2X1
XOAI21X1_30 gnd vdd _466_ FW_enable_1_bF$buf4 bus_rs1_decode_wire[29] _467_ OAI21X1
XINVX1_31 gnd _468_ vdd gnd INVX1
XNAND2X1_31 vdd _469_ gnd FW_enable_1_bF$buf4 FW_source_1[30] NAND2X1
XOAI21X1_31 gnd vdd _468_ FW_enable_1_bF$buf2 bus_rs1_decode_wire[30] _469_ OAI21X1
XINVX1_32 gnd _470_ vdd gnd INVX1
XNAND2X1_32 vdd _471_ gnd FW_enable_1_bF$buf4 FW_source_1[31] NAND2X1
XOAI21X1_32 gnd vdd _470_ FW_enable_1_bF$buf4 bus_rs1_decode_wire[31] _471_ OAI21X1
XINVX1_33 gnd _472_ vdd gnd INVX1
XNAND2X1_33 vdd _473_ gnd FW_source_2[0] FW_enable_2_bF$buf4 NAND2X1
XOAI21X1_33 gnd vdd _472_ FW_enable_2_bF$buf4 bus_rs2_decode_wire[0] _473_ OAI21X1
XINVX1_34 gnd _474_ vdd gnd INVX1
XNAND2X1_34 vdd _475_ gnd FW_enable_2_bF$buf4 FW_source_2[1] NAND2X1
XOAI21X1_34 gnd vdd _474_ FW_enable_2_bF$buf2 bus_rs2_decode_wire[1] _475_ OAI21X1
XINVX1_35 gnd _476_ vdd gnd INVX1
XNAND2X1_35 vdd _477_ gnd FW_enable_2_bF$buf2 FW_source_2[2] NAND2X1
XOAI21X1_35 gnd vdd _476_ FW_enable_2_bF$buf6 bus_rs2_decode_wire[2] _477_ OAI21X1
XINVX1_36 gnd _478_ vdd gnd INVX1
XNAND2X1_36 vdd _479_ gnd FW_enable_2_bF$buf1 FW_source_2[3] NAND2X1
XOAI21X1_36 gnd vdd _478_ FW_enable_2_bF$buf5 bus_rs2_decode_wire[3] _479_ OAI21X1
XINVX1_37 gnd _480_ vdd gnd INVX1
XNAND2X1_37 vdd _481_ gnd FW_enable_2_bF$buf4 FW_source_2[4] NAND2X1