* XSpice netlist created from SPICE and liberty sources by spi2xspice.py
*SPICE netlist created from BLIF module phoeniX by blif2BSpice
.subckt phoeniX a_vdd a_gnd a_CLK a_reset a_instruction_memory_interface_data_0_ a_instruction_memory_interface_data_1_ a_instruction_memory_interface_data_2_ a_instruction_memory_interface_data_3_ a_instruction_memory_interface_data_4_ a_instruction_memory_interface_data_5_ a_instruction_memory_interface_data_6_ a_instruction_memory_interface_data_7_ a_instruction_memory_interface_data_8_ a_instruction_memory_interface_data_9_ a_instruction_memory_interface_data_10_ a_instruction_memory_interface_data_11_ a_instruction_memory_interface_data_12_ a_instruction_memory_interface_data_13_ a_instruction_memory_interface_data_14_ a_instruction_memory_interface_data_15_ a_instruction_memory_interface_data_16_ a_instruction_memory_interface_data_17_ a_instruction_memory_interface_data_18_ a_instruction_memory_interface_data_19_ a_instruction_memory_interface_data_20_ a_instruction_memory_interface_data_21_ a_instruction_memory_interface_data_22_ a_instruction_memory_interface_data_23_ a_instruction_memory_interface_data_24_ a_instruction_memory_interface_data_25_ a_instruction_memory_interface_data_26_ a_instruction_memory_interface_data_27_ a_instruction_memory_interface_data_28_ a_instruction_memory_interface_data_29_ a_instruction_memory_interface_data_30_ a_instruction_memory_interface_data_31_ a_data_memory_interface_data_0_ a_data_memory_interface_data_1_ a_data_memory_interface_data_2_ a_data_memory_interface_data_3_ a_data_memory_interface_data_4_ a_data_memory_interface_data_5_ a_data_memory_interface_data_6_ a_data_memory_interface_data_7_ a_data_memory_interface_data_8_ a_data_memory_interface_data_9_ a_data_memory_interface_data_10_ a_data_memory_interface_data_11_ a_data_memory_interface_data_12_ a_data_memory_interface_data_13_ a_data_memory_interface_data_14_ a_data_memory_interface_data_15_ a_data_memory_interface_data_16_ a_data_memory_interface_data_17_ a_data_memory_interface_data_18_ a_data_memory_interface_data_19_ a_data_memory_interface_data_20_ a_data_memory_interface_data_21_ a_data_memory_interface_data_22_ a_data_memory_interface_data_23_ a_data_memory_interface_data_24_ a_data_memory_interface_data_25_ a_data_memory_interface_data_26_ a_data_memory_interface_data_27_ a_data_memory_interface_data_28_ a_data_memory_interface_data_29_ a_data_memory_interface_data_30_ a_data_memory_interface_data_31_ a_instruction_memory_interface_enable a_instruction_memory_interface_state a_instruction_memory_interface_address_0_ a_instruction_memory_interface_address_1_ a_instruction_memory_interface_address_2_ a_instruction_memory_interface_address_3_ a_instruction_memory_interface_address_4_ a_instruction_memory_interface_address_5_ a_instruction_memory_interface_address_6_ a_instruction_memory_interface_address_7_ a_instruction_memory_interface_address_8_ a_instruction_memory_interface_address_9_ a_instruction_memory_interface_address_10_ a_instruction_memory_interface_address_11_ a_instruction_memory_interface_address_12_ a_instruction_memory_interface_address_13_ a_instruction_memory_interface_address_14_ a_instruction_memory_interface_address_15_ a_instruction_memory_interface_address_16_ a_instruction_memory_interface_address_17_ a_instruction_memory_interface_address_18_ a_instruction_memory_interface_address_19_ a_instruction_memory_interface_address_20_ a_instruction_memory_interface_address_21_ a_instruction_memory_interface_address_22_ a_instruction_memory_interface_address_23_ a_instruction_memory_interface_address_24_ a_instruction_memory_interface_address_25_ a_instruction_memory_interface_address_26_ a_instruction_memory_interface_address_27_ a_instruction_memory_interface_address_28_ a_instruction_memory_interface_address_29_ a_instruction_memory_interface_address_30_ a_instruction_memory_interface_address_31_ a_instruction_memory_interface_frame_mask_0_ a_instruction_memory_interface_frame_mask_1_ a_instruction_memory_interface_frame_mask_2_ a_instruction_memory_interface_frame_mask_3_ a_data_memory_interface_enable a_data_memory_interface_state a_data_memory_interface_address_0_ a_data_memory_interface_address_1_ a_data_memory_interface_address_2_ a_data_memory_interface_address_3_ a_data_memory_interface_address_4_ a_data_memory_interface_address_5_ a_data_memory_interface_address_6_ a_data_memory_interface_address_7_ a_data_memory_interface_address_8_ a_data_memory_interface_address_9_ a_data_memory_interface_address_10_ a_data_memory_interface_address_11_ a_data_memory_interface_address_12_ a_data_memory_interface_address_13_ a_data_memory_interface_address_14_ a_data_memory_interface_address_15_ a_data_memory_interface_address_16_ a_data_memory_interface_address_17_ a_data_memory_interface_address_18_ a_data_memory_interface_address_19_ a_data_memory_interface_address_20_ a_data_memory_interface_address_21_ a_data_memory_interface_address_22_ a_data_memory_interface_address_23_ a_data_memory_interface_address_24_ a_data_memory_interface_address_25_ a_data_memory_interface_address_26_ a_data_memory_interface_address_27_ a_data_memory_interface_address_28_ a_data_memory_interface_address_29_ a_data_memory_interface_address_30_ a_data_memory_interface_address_31_ a_data_memory_interface_frame_mask_0_ a_data_memory_interface_frame_mask_1_ a_data_memory_interface_frame_mask_2_ a_data_memory_interface_frame_mask_3_ a_data_memory_interface_data_0_ a_data_memory_interface_data_1_ a_data_memory_interface_data_2_ a_data_memory_interface_data_3_ a_data_memory_interface_data_4_ a_data_memory_interface_data_5_ a_data_memory_interface_data_6_ a_data_memory_interface_data_7_ a_data_memory_interface_data_8_ a_data_memory_interface_data_9_ a_data_memory_interface_data_10_ a_data_memory_interface_data_11_ a_data_memory_interface_data_12_ a_data_memory_interface_data_13_ a_data_memory_interface_data_14_ a_data_memory_interface_data_15_ a_data_memory_interface_data_16_ a_data_memory_interface_data_17_ a_data_memory_interface_data_18_ a_data_memory_interface_data_19_ a_data_memory_interface_data_20_ a_data_memory_interface_data_21_ a_data_memory_interface_data_22_ a_data_memory_interface_data_23_ a_data_memory_interface_data_24_ a_data_memory_interface_data_25_ a_data_memory_interface_data_26_ a_data_memory_interface_data_27_ a_data_memory_interface_data_28_ a_data_memory_interface_data_29_ a_data_memory_interface_data_30_ a_data_memory_interface_data_31_
ABUFX4_1 [CLK] CLK_hier0_bF$buf6 d_lut_BUFX4
ABUFX4_2 [CLK] CLK_hier0_bF$buf5 d_lut_BUFX4
ABUFX4_3 [CLK] CLK_hier0_bF$buf4 d_lut_BUFX4
ABUFX4_4 [CLK] CLK_hier0_bF$buf3 d_lut_BUFX4
ABUFX4_5 [CLK] CLK_hier0_bF$buf2 d_lut_BUFX4
ABUFX4_6 [CLK] CLK_hier0_bF$buf1 d_lut_BUFX4
ABUFX4_7 [CLK] CLK_hier0_bF$buf0 d_lut_BUFX4
ABUFX4_8 [_3955_] _3955__bF$buf3 d_lut_BUFX4
ABUFX4_9 [_3955_] _3955__bF$buf2 d_lut_BUFX4
ABUFX4_10 [_3955_] _3955__bF$buf1 d_lut_BUFX4
ABUFX4_11 [_3955_] _3955__bF$buf0 d_lut_BUFX4
ABUFX4_12 [_224_] _224__bF$buf4 d_lut_BUFX4
ABUFX4_13 [_224_] _224__bF$buf3 d_lut_BUFX4
ABUFX4_14 [_224_] _224__bF$buf2 d_lut_BUFX4
ABUFX4_15 [_224_] _224__bF$buf1 d_lut_BUFX4
ABUFX4_16 [_224_] _224__bF$buf0 d_lut_BUFX4
ABUFX4_17 [FW_enable_1] FW_enable_1_bF$buf7 d_lut_BUFX4
ABUFX4_18 [FW_enable_1] FW_enable_1_bF$buf6 d_lut_BUFX4
ABUFX4_19 [FW_enable_1] FW_enable_1_bF$buf5 d_lut_BUFX4
ABUFX4_20 [FW_enable_1] FW_enable_1_bF$buf4 d_lut_BUFX4
ABUFX4_21 [FW_enable_1] FW_enable_1_bF$buf3 d_lut_BUFX4
ABUFX4_22 [FW_enable_1] FW_enable_1_bF$buf2 d_lut_BUFX4
ABUFX4_23 [FW_enable_1] FW_enable_1_bF$buf1 d_lut_BUFX4
ABUFX4_24 [FW_enable_1] FW_enable_1_bF$buf0 d_lut_BUFX4
ABUFX4_25 [FW_enable_2] FW_enable_2_bF$buf7 d_lut_BUFX4
ABUFX4_26 [FW_enable_2] FW_enable_2_bF$buf6 d_lut_BUFX4
ABUFX4_27 [FW_enable_2] FW_enable_2_bF$buf5 d_lut_BUFX4
ABUFX4_28 [FW_enable_2] FW_enable_2_bF$buf4 d_lut_BUFX4
ABUFX4_29 [FW_enable_2] FW_enable_2_bF$buf3 d_lut_BUFX4
ABUFX4_30 [FW_enable_2] FW_enable_2_bF$buf2 d_lut_BUFX4
ABUFX4_31 [FW_enable_2] FW_enable_2_bF$buf1 d_lut_BUFX4
ABUFX4_32 [FW_enable_2] FW_enable_2_bF$buf0 d_lut_BUFX4
ABUFX4_33 [_3106_] _3106__bF$buf4 d_lut_BUFX4
ABUFX4_34 [_3106_] _3106__bF$buf3 d_lut_BUFX4
ABUFX4_35 [_3106_] _3106__bF$buf2 d_lut_BUFX4
ABUFX4_36 [_3106_] _3106__bF$buf1 d_lut_BUFX4
ABUFX4_37 [_3106_] _3106__bF$buf0 d_lut_BUFX4
ABUFX4_38 [_2585_] _2585__bF$buf6 d_lut_BUFX4
ABUFX4_39 [_2585_] _2585__bF$buf5 d_lut_BUFX4
ABUFX4_40 [_2585_] _2585__bF$buf4 d_lut_BUFX4
ABUFX4_41 [_2585_] _2585__bF$buf3 d_lut_BUFX4
ABUFX4_42 [_2585_] _2585__bF$buf2 d_lut_BUFX4
ABUFX4_43 [_2585_] _2585__bF$buf1 d_lut_BUFX4
ABUFX4_44 [_2585_] _2585__bF$buf0 d_lut_BUFX4
ABUFX4_45 [_194_] _194__bF$buf5 d_lut_BUFX4
ABUFX4_46 [_194_] _194__bF$buf4 d_lut_BUFX4
ABUFX4_47 [_194_] _194__bF$buf3 d_lut_BUFX4
ABUFX4_48 [_194_] _194__bF$buf2 d_lut_BUFX4
ABUFX4_49 [_194_] _194__bF$buf1 d_lut_BUFX4
ABUFX4_50 [_194_] _194__bF$buf0 d_lut_BUFX4
ABUFX4_51 [_2388_] _2388__bF$buf7 d_lut_BUFX4
ABUFX4_52 [_2388_] _2388__bF$buf6 d_lut_BUFX4
ABUFX4_53 [_2388_] _2388__bF$buf5 d_lut_BUFX4
ABUFX4_54 [_2388_] _2388__bF$buf4 d_lut_BUFX4
ABUFX4_55 [_2388_] _2388__bF$buf3 d_lut_BUFX4
ABUFX4_56 [_2388_] _2388__bF$buf2 d_lut_BUFX4
ABUFX4_57 [_2388_] _2388__bF$buf1 d_lut_BUFX4
ABUFX4_58 [_2388_] _2388__bF$buf0 d_lut_BUFX4
ABUFX4_59 [_3326_] _3326__bF$buf4 d_lut_BUFX4
ABUFX4_60 [_3326_] _3326__bF$buf3 d_lut_BUFX4
ABUFX4_61 [_3326_] _3326__bF$buf2 d_lut_BUFX4
ABUFX4_62 [_3326_] _3326__bF$buf1 d_lut_BUFX4
ABUFX4_63 [_3326_] _3326__bF$buf0 d_lut_BUFX4
ABUFX4_64 [_4111_] _4111__bF$buf3 d_lut_BUFX4
ABUFX4_65 [_4111_] _4111__bF$buf2 d_lut_BUFX4
ABUFX4_66 [_4111_] _4111__bF$buf1 d_lut_BUFX4
ABUFX4_67 [_4111_] _4111__bF$buf0 d_lut_BUFX4
ABUFX4_68 [_4108_] _4108__bF$buf3 d_lut_BUFX4
ABUFX4_69 [_4108_] _4108__bF$buf2 d_lut_BUFX4
ABUFX4_70 [_4108_] _4108__bF$buf1 d_lut_BUFX4
ABUFX4_71 [_4108_] _4108__bF$buf0 d_lut_BUFX4
ABUFX4_72 [_526_] _526__bF$buf4 d_lut_BUFX4
ABUFX4_73 [_526_] _526__bF$buf3 d_lut_BUFX4
ABUFX4_74 [_526_] _526__bF$buf2 d_lut_BUFX4
ABUFX4_75 [_526_] _526__bF$buf1 d_lut_BUFX4
ABUFX4_76 [_526_] _526__bF$buf0 d_lut_BUFX4
ABUFX4_77 [_2438_] _2438__bF$buf3 d_lut_BUFX4
ABUFX4_78 [_2438_] _2438__bF$buf2 d_lut_BUFX4
ABUFX4_79 [_2438_] _2438__bF$buf1 d_lut_BUFX4
ABUFX4_80 [_2438_] _2438__bF$buf0 d_lut_BUFX4
ABUFX4_81 [_2664_] _2664__bF$buf4 d_lut_BUFX4
ABUFX4_82 [_2664_] _2664__bF$buf3 d_lut_BUFX4
ABUFX4_83 [_2664_] _2664__bF$buf2 d_lut_BUFX4
ABUFX4_84 [_2664_] _2664__bF$buf1 d_lut_BUFX4
ABUFX4_85 [_2664_] _2664__bF$buf0 d_lut_BUFX4
ABUFX4_86 [_2699_] _2699__bF$buf3 d_lut_BUFX4
ABUFX4_87 [_2699_] _2699__bF$buf2 d_lut_BUFX4
ABUFX4_88 [_2699_] _2699__bF$buf1 d_lut_BUFX4
ABUFX4_89 [_2699_] _2699__bF$buf0 d_lut_BUFX4
ABUFX4_90 [_2717_] _2717__bF$buf3 d_lut_BUFX4
ABUFX4_91 [_2717_] _2717__bF$buf2 d_lut_BUFX4
ABUFX4_92 [_2717_] _2717__bF$buf1 d_lut_BUFX4
ABUFX4_93 [_2717_] _2717__bF$buf0 d_lut_BUFX4
ABUFX4_94 [_3343_] _3343__bF$buf4 d_lut_BUFX4
ABUFX4_95 [_3343_] _3343__bF$buf3 d_lut_BUFX4
ABUFX4_96 [_3343_] _3343__bF$buf2 d_lut_BUFX4
ABUFX4_97 [_3343_] _3343__bF$buf1 d_lut_BUFX4
ABUFX4_98 [_3343_] _3343__bF$buf0 d_lut_BUFX4
ABUFX4_99 [_3334_] _3334__bF$buf4 d_lut_BUFX4
ABUFX4_100 [_3334_] _3334__bF$buf3 d_lut_BUFX4
ABUFX4_101 [_3334_] _3334__bF$buf2 d_lut_BUFX4
ABUFX4_102 [_3334_] _3334__bF$buf1 d_lut_BUFX4
ABUFX4_103 [_3334_] _3334__bF$buf0 d_lut_BUFX4
ABUFX4_104 [_3983_] _3983__bF$buf5 d_lut_BUFX4
ABUFX4_105 [_3983_] _3983__bF$buf4 d_lut_BUFX4
ABUFX4_106 [_3983_] _3983__bF$buf3 d_lut_BUFX4
ABUFX4_107 [_3983_] _3983__bF$buf2 d_lut_BUFX4
ABUFX4_108 [_3983_] _3983__bF$buf1 d_lut_BUFX4
ABUFX4_109 [_3983_] _3983__bF$buf0 d_lut_BUFX4
ABUFX4_110 [_193_] _193__bF$buf4 d_lut_BUFX4
ABUFX4_111 [_193_] _193__bF$buf3 d_lut_BUFX4
ABUFX4_112 [_193_] _193__bF$buf2 d_lut_BUFX4
ABUFX4_113 [_193_] _193__bF$buf1 d_lut_BUFX4
ABUFX4_114 [_193_] _193__bF$buf0 d_lut_BUFX4
ABUFX4_115 [_3980_] _3980__bF$buf3 d_lut_BUFX4
ABUFX4_116 [_3980_] _3980__bF$buf2 d_lut_BUFX4
ABUFX4_117 [_3980_] _3980__bF$buf1 d_lut_BUFX4
ABUFX4_118 [_3980_] _3980__bF$buf0 d_lut_BUFX4
ABUFX4_119 [_3328_] _3328__bF$buf4 d_lut_BUFX4
ABUFX4_120 [_3328_] _3328__bF$buf3 d_lut_BUFX4
ABUFX4_121 [_3328_] _3328__bF$buf2 d_lut_BUFX4
ABUFX4_122 [_3328_] _3328__bF$buf1 d_lut_BUFX4
ABUFX4_123 [_3328_] _3328__bF$buf0 d_lut_BUFX4
ABUFX4_124 [_2446_] _2446__bF$buf6 d_lut_BUFX4
ABUFX4_125 [_2446_] _2446__bF$buf5 d_lut_BUFX4
ABUFX4_126 [_2446_] _2446__bF$buf4 d_lut_BUFX4
ABUFX4_127 [_2446_] _2446__bF$buf3 d_lut_BUFX4
ABUFX4_128 [_2446_] _2446__bF$buf2 d_lut_BUFX4
ABUFX4_129 [_2446_] _2446__bF$buf1 d_lut_BUFX4
ABUFX4_130 [_2446_] _2446__bF$buf0 d_lut_BUFX4
ABUFX4_131 [_3078_] _3078__bF$buf4 d_lut_BUFX4
ABUFX4_132 [_3078_] _3078__bF$buf3 d_lut_BUFX4
ABUFX4_133 [_3078_] _3078__bF$buf2 d_lut_BUFX4
ABUFX4_134 [_3078_] _3078__bF$buf1 d_lut_BUFX4
ABUFX4_135 [_3078_] _3078__bF$buf0 d_lut_BUFX4
ABUFX4_136 [_187_] _187__bF$buf4 d_lut_BUFX4
ABUFX4_137 [_187_] _187__bF$buf3 d_lut_BUFX4
ABUFX4_138 [_187_] _187__bF$buf2 d_lut_BUFX4
ABUFX4_139 [_187_] _187__bF$buf1 d_lut_BUFX4
ABUFX4_140 [_187_] _187__bF$buf0 d_lut_BUFX4
ABUFX4_141 [_337_] _337__bF$buf4 d_lut_BUFX4
ABUFX4_142 [_337_] _337__bF$buf3 d_lut_BUFX4
ABUFX4_143 [_337_] _337__bF$buf2 d_lut_BUFX4
ABUFX4_144 [_337_] _337__bF$buf1 d_lut_BUFX4
ABUFX4_145 [_337_] _337__bF$buf0 d_lut_BUFX4
ABUFX4_146 [_566_] _566__bF$buf5 d_lut_BUFX4
ABUFX4_147 [_566_] _566__bF$buf4 d_lut_BUFX4
ABUFX4_148 [_566_] _566__bF$buf3 d_lut_BUFX4
ABUFX4_149 [_566_] _566__bF$buf2 d_lut_BUFX4
ABUFX4_150 [_566_] _566__bF$buf1 d_lut_BUFX4
ABUFX4_151 [_566_] _566__bF$buf0 d_lut_BUFX4
ABUFX4_152 [_2722_] _2722__bF$buf3 d_lut_BUFX4
ABUFX4_153 [_2722_] _2722__bF$buf2 d_lut_BUFX4
ABUFX4_154 [_2722_] _2722__bF$buf1 d_lut_BUFX4
ABUFX4_155 [_2722_] _2722__bF$buf0 d_lut_BUFX4
ABUFX4_156 [_29_] _29__bF$buf7 d_lut_BUFX4
ABUFX4_157 [_29_] _29__bF$buf6 d_lut_BUFX4
ABUFX4_158 [_29_] _29__bF$buf5 d_lut_BUFX4
ABUFX4_159 [_29_] _29__bF$buf4 d_lut_BUFX4
ABUFX4_160 [_29_] _29__bF$buf3 d_lut_BUFX4
ABUFX4_161 [_29_] _29__bF$buf2 d_lut_BUFX4
ABUFX4_162 [_29_] _29__bF$buf1 d_lut_BUFX4
ABUFX4_163 [_29_] _29__bF$buf0 d_lut_BUFX4
ABUFX4_164 [_3354_] _3354__bF$buf4 d_lut_BUFX4
ABUFX4_165 [_3354_] _3354__bF$buf3 d_lut_BUFX4
ABUFX4_166 [_3354_] _3354__bF$buf2 d_lut_BUFX4
ABUFX4_167 [_3354_] _3354__bF$buf1 d_lut_BUFX4
ABUFX4_168 [_3354_] _3354__bF$buf0 d_lut_BUFX4
ABUFX4_169 [_4139_] _4139__bF$buf3 d_lut_BUFX4
ABUFX4_170 [_4139_] _4139__bF$buf2 d_lut_BUFX4
ABUFX4_171 [_4139_] _4139__bF$buf1 d_lut_BUFX4
ABUFX4_172 [_4139_] _4139__bF$buf0 d_lut_BUFX4
ABUFX4_173 [_2663_] _2663__bF$buf3 d_lut_BUFX4
ABUFX4_174 [_2663_] _2663__bF$buf2 d_lut_BUFX4
ABUFX4_175 [_2663_] _2663__bF$buf1 d_lut_BUFX4
ABUFX4_176 [_2663_] _2663__bF$buf0 d_lut_BUFX4
ABUFX4_177 [_2090_] _2090__bF$buf4 d_lut_BUFX4
ABUFX4_178 [_2090_] _2090__bF$buf3 d_lut_BUFX4
ABUFX4_179 [_2090_] _2090__bF$buf2 d_lut_BUFX4
ABUFX4_180 [_2090_] _2090__bF$buf1 d_lut_BUFX4
ABUFX4_181 [_2090_] _2090__bF$buf0 d_lut_BUFX4
ABUFX4_182 [_99_] _99__bF$buf4 d_lut_BUFX4
ABUFX4_183 [_99_] _99__bF$buf3 d_lut_BUFX4
ABUFX4_184 [_99_] _99__bF$buf2 d_lut_BUFX4
ABUFX4_185 [_99_] _99__bF$buf1 d_lut_BUFX4
ABUFX4_186 [_99_] _99__bF$buf0 d_lut_BUFX4
ACLKBUF1_1 [CLK_hier0_bF$buf6] CLK_bF$buf62 d_lut_CLKBUF1
ACLKBUF1_2 [CLK_hier0_bF$buf5] CLK_bF$buf61 d_lut_CLKBUF1
ACLKBUF1_3 [CLK_hier0_bF$buf4] CLK_bF$buf60 d_lut_CLKBUF1
ACLKBUF1_4 [CLK_hier0_bF$buf3] CLK_bF$buf59 d_lut_CLKBUF1
ACLKBUF1_5 [CLK_hier0_bF$buf2] CLK_bF$buf58 d_lut_CLKBUF1
ACLKBUF1_6 [CLK_hier0_bF$buf1] CLK_bF$buf57 d_lut_CLKBUF1
ACLKBUF1_7 [CLK_hier0_bF$buf0] CLK_bF$buf56 d_lut_CLKBUF1
ACLKBUF1_8 [CLK_hier0_bF$buf6] CLK_bF$buf55 d_lut_CLKBUF1
ACLKBUF1_9 [CLK_hier0_bF$buf5] CLK_bF$buf54 d_lut_CLKBUF1
ACLKBUF1_10 [CLK_hier0_bF$buf4] CLK_bF$buf53 d_lut_CLKBUF1
ACLKBUF1_11 [CLK_hier0_bF$buf3] CLK_bF$buf52 d_lut_CLKBUF1
ACLKBUF1_12 [CLK_hier0_bF$buf2] CLK_bF$buf51 d_lut_CLKBUF1
ACLKBUF1_13 [CLK_hier0_bF$buf1] CLK_bF$buf50 d_lut_CLKBUF1
ACLKBUF1_14 [CLK_hier0_bF$buf0] CLK_bF$buf49 d_lut_CLKBUF1
ACLKBUF1_15 [CLK_hier0_bF$buf6] CLK_bF$buf48 d_lut_CLKBUF1
ACLKBUF1_16 [CLK_hier0_bF$buf5] CLK_bF$buf47 d_lut_CLKBUF1
ACLKBUF1_17 [CLK_hier0_bF$buf4] CLK_bF$buf46 d_lut_CLKBUF1
ACLKBUF1_18 [CLK_hier0_bF$buf3] CLK_bF$buf45 d_lut_CLKBUF1
ACLKBUF1_19 [CLK_hier0_bF$buf2] CLK_bF$buf44 d_lut_CLKBUF1
ACLKBUF1_20 [CLK_hier0_bF$buf1] CLK_bF$buf43 d_lut_CLKBUF1
ACLKBUF1_21 [CLK_hier0_bF$buf0] CLK_bF$buf42 d_lut_CLKBUF1
ACLKBUF1_22 [CLK_hier0_bF$buf6] CLK_bF$buf41 d_lut_CLKBUF1
ACLKBUF1_23 [CLK_hier0_bF$buf5] CLK_bF$buf40 d_lut_CLKBUF1
ACLKBUF1_24 [CLK_hier0_bF$buf4] CLK_bF$buf39 d_lut_CLKBUF1
ACLKBUF1_25 [CLK_hier0_bF$buf3] CLK_bF$buf38 d_lut_CLKBUF1
ACLKBUF1_26 [CLK_hier0_bF$buf2] CLK_bF$buf37 d_lut_CLKBUF1
ACLKBUF1_27 [CLK_hier0_bF$buf1] CLK_bF$buf36 d_lut_CLKBUF1
ACLKBUF1_28 [CLK_hier0_bF$buf0] CLK_bF$buf35 d_lut_CLKBUF1
ACLKBUF1_29 [CLK_hier0_bF$buf6] CLK_bF$buf34 d_lut_CLKBUF1
ACLKBUF1_30 [CLK_hier0_bF$buf5] CLK_bF$buf33 d_lut_CLKBUF1
ACLKBUF1_31 [CLK_hier0_bF$buf4] CLK_bF$buf32 d_lut_CLKBUF1
ACLKBUF1_32 [CLK_hier0_bF$buf3] CLK_bF$buf31 d_lut_CLKBUF1
ACLKBUF1_33 [CLK_hier0_bF$buf2] CLK_bF$buf30 d_lut_CLKBUF1
ACLKBUF1_34 [CLK_hier0_bF$buf1] CLK_bF$buf29 d_lut_CLKBUF1
ACLKBUF1_35 [CLK_hier0_bF$buf0] CLK_bF$buf28 d_lut_CLKBUF1
ACLKBUF1_36 [CLK_hier0_bF$buf6] CLK_bF$buf27 d_lut_CLKBUF1
ACLKBUF1_37 [CLK_hier0_bF$buf5] CLK_bF$buf26 d_lut_CLKBUF1
ACLKBUF1_38 [CLK_hier0_bF$buf4] CLK_bF$buf25 d_lut_CLKBUF1
ACLKBUF1_39 [CLK_hier0_bF$buf3] CLK_bF$buf24 d_lut_CLKBUF1
ACLKBUF1_40 [CLK_hier0_bF$buf2] CLK_bF$buf23 d_lut_CLKBUF1
ACLKBUF1_41 [CLK_hier0_bF$buf1] CLK_bF$buf22 d_lut_CLKBUF1
ACLKBUF1_42 [CLK_hier0_bF$buf0] CLK_bF$buf21 d_lut_CLKBUF1
ACLKBUF1_43 [CLK_hier0_bF$buf6] CLK_bF$buf20 d_lut_CLKBUF1
ACLKBUF1_44 [CLK_hier0_bF$buf5] CLK_bF$buf19 d_lut_CLKBUF1
ACLKBUF1_45 [CLK_hier0_bF$buf4] CLK_bF$buf18 d_lut_CLKBUF1
ACLKBUF1_46 [CLK_hier0_bF$buf3] CLK_bF$buf17 d_lut_CLKBUF1
ACLKBUF1_47 [CLK_hier0_bF$buf2] CLK_bF$buf16 d_lut_CLKBUF1
ACLKBUF1_48 [CLK_hier0_bF$buf1] CLK_bF$buf15 d_lut_CLKBUF1
ACLKBUF1_49 [CLK_hier0_bF$buf0] CLK_bF$buf14 d_lut_CLKBUF1
ACLKBUF1_50 [CLK_hier0_bF$buf6] CLK_bF$buf13 d_lut_CLKBUF1
ACLKBUF1_51 [CLK_hier0_bF$buf5] CLK_bF$buf12 d_lut_CLKBUF1
ACLKBUF1_52 [CLK_hier0_bF$buf4] CLK_bF$buf11 d_lut_CLKBUF1
ACLKBUF1_53 [CLK_hier0_bF$buf3] CLK_bF$buf10 d_lut_CLKBUF1
ACLKBUF1_54 [CLK_hier0_bF$buf2] CLK_bF$buf9 d_lut_CLKBUF1
ACLKBUF1_55 [CLK_hier0_bF$buf1] CLK_bF$buf8 d_lut_CLKBUF1
ACLKBUF1_56 [CLK_hier0_bF$buf0] CLK_bF$buf7 d_lut_CLKBUF1
ACLKBUF1_57 [CLK_hier0_bF$buf6] CLK_bF$buf6 d_lut_CLKBUF1
ACLKBUF1_58 [CLK_hier0_bF$buf5] CLK_bF$buf5 d_lut_CLKBUF1
ACLKBUF1_59 [CLK_hier0_bF$buf4] CLK_bF$buf4 d_lut_CLKBUF1
ACLKBUF1_60 [CLK_hier0_bF$buf3] CLK_bF$buf3 d_lut_CLKBUF1
ACLKBUF1_61 [CLK_hier0_bF$buf2] CLK_bF$buf2 d_lut_CLKBUF1
ACLKBUF1_62 [CLK_hier0_bF$buf1] CLK_bF$buf1 d_lut_CLKBUF1
ACLKBUF1_63 [CLK_hier0_bF$buf0] CLK_bF$buf0 d_lut_CLKBUF1
ABUFX4_187 [_2713_] _2713__bF$buf3 d_lut_BUFX4
ABUFX4_188 [_2713_] _2713__bF$buf2 d_lut_BUFX4
ABUFX4_189 [_2713_] _2713__bF$buf1 d_lut_BUFX4
ABUFX4_190 [_2713_] _2713__bF$buf0 d_lut_BUFX4
ABUFX4_191 [_96_] _96__bF$buf4 d_lut_BUFX4
ABUFX4_192 [_96_] _96__bF$buf3 d_lut_BUFX4
ABUFX4_193 [_96_] _96__bF$buf2 d_lut_BUFX4
ABUFX4_194 [_96_] _96__bF$buf1 d_lut_BUFX4
ABUFX4_195 [_96_] _96__bF$buf0 d_lut_BUFX4
ABUFX4_196 [_225_] _225__bF$buf4 d_lut_BUFX4
ABUFX4_197 [_225_] _225__bF$buf3 d_lut_BUFX4
ABUFX4_198 [_225_] _225__bF$buf2 d_lut_BUFX4
ABUFX4_199 [_225_] _225__bF$buf1 d_lut_BUFX4
ABUFX4_200 [_225_] _225__bF$buf0 d_lut_BUFX4
ABUFX4_201 [_3095_] _3095__bF$buf4 d_lut_BUFX4
ABUFX4_202 [_3095_] _3095__bF$buf3 d_lut_BUFX4
ABUFX4_203 [_3095_] _3095__bF$buf2 d_lut_BUFX4
ABUFX4_204 [_3095_] _3095__bF$buf1 d_lut_BUFX4
ABUFX4_205 [_3095_] _3095__bF$buf0 d_lut_BUFX4
ABUFX4_206 [_3086_] _3086__bF$buf4 d_lut_BUFX4
ABUFX4_207 [_3086_] _3086__bF$buf3 d_lut_BUFX4
ABUFX4_208 [_3086_] _3086__bF$buf2 d_lut_BUFX4
ABUFX4_209 [_3086_] _3086__bF$buf1 d_lut_BUFX4
ABUFX4_210 [_3086_] _3086__bF$buf0 d_lut_BUFX4
ABUFX4_211 [_2395_] _2395__bF$buf6 d_lut_BUFX4
ABUFX4_212 [_2395_] _2395__bF$buf5 d_lut_BUFX4
ABUFX4_213 [_2395_] _2395__bF$buf4 d_lut_BUFX4
ABUFX4_214 [_2395_] _2395__bF$buf3 d_lut_BUFX4
ABUFX4_215 [_2395_] _2395__bF$buf2 d_lut_BUFX4
ABUFX4_216 [_2395_] _2395__bF$buf1 d_lut_BUFX4
ABUFX4_217 [_2395_] _2395__bF$buf0 d_lut_BUFX4
ABUFX4_218 [_3080_] _3080__bF$buf4 d_lut_BUFX4
ABUFX4_219 [_3080_] _3080__bF$buf3 d_lut_BUFX4
ABUFX4_220 [_3080_] _3080__bF$buf2 d_lut_BUFX4
ABUFX4_221 [_3080_] _3080__bF$buf1 d_lut_BUFX4
ABUFX4_222 [_3080_] _3080__bF$buf0 d_lut_BUFX4
ABUFX4_223 [_2407_] _2407__bF$buf7 d_lut_BUFX4
ABUFX4_224 [_2407_] _2407__bF$buf6 d_lut_BUFX4
ABUFX4_225 [_2407_] _2407__bF$buf5 d_lut_BUFX4
ABUFX4_226 [_2407_] _2407__bF$buf4 d_lut_BUFX4
ABUFX4_227 [_2407_] _2407__bF$buf3 d_lut_BUFX4
ABUFX4_228 [_2407_] _2407__bF$buf2 d_lut_BUFX4
ABUFX4_229 [_2407_] _2407__bF$buf1 d_lut_BUFX4
ABUFX4_230 [_2407_] _2407__bF$buf0 d_lut_BUFX4
ABUFX4_231 [_571_] _571__bF$buf4 d_lut_BUFX4
ABUFX4_232 [_571_] _571__bF$buf3 d_lut_BUFX4
ABUFX4_233 [_571_] _571__bF$buf2 d_lut_BUFX4
ABUFX4_234 [_571_] _571__bF$buf1 d_lut_BUFX4
ABUFX4_235 [_571_] _571__bF$buf0 d_lut_BUFX4
ABUFX4_236 [_336_] _336__bF$buf4 d_lut_BUFX4
ABUFX4_237 [_336_] _336__bF$buf3 d_lut_BUFX4
ABUFX4_238 [_336_] _336__bF$buf2 d_lut_BUFX4
ABUFX4_239 [_336_] _336__bF$buf1 d_lut_BUFX4
ABUFX4_240 [_336_] _336__bF$buf0 d_lut_BUFX4
ABUFX4_241 [fetch_unit.jump_branch_enable] fetch_unit.jump_branch_enable_bF$buf8 d_lut_BUFX4
ABUFX4_242 [fetch_unit.jump_branch_enable] fetch_unit.jump_branch_enable_bF$buf7 d_lut_BUFX4
ABUFX4_243 [fetch_unit.jump_branch_enable] fetch_unit.jump_branch_enable_bF$buf6 d_lut_BUFX4
ABUFX4_244 [fetch_unit.jump_branch_enable] fetch_unit.jump_branch_enable_bF$buf5 d_lut_BUFX4
ABUFX4_245 [fetch_unit.jump_branch_enable] fetch_unit.jump_branch_enable_bF$buf4 d_lut_BUFX4
ABUFX4_246 [fetch_unit.jump_branch_enable] fetch_unit.jump_branch_enable_bF$buf3 d_lut_BUFX4
ABUFX4_247 [fetch_unit.jump_branch_enable] fetch_unit.jump_branch_enable_bF$buf2 d_lut_BUFX4
ABUFX4_248 [fetch_unit.jump_branch_enable] fetch_unit.jump_branch_enable_bF$buf1 d_lut_BUFX4
ABUFX4_249 [fetch_unit.jump_branch_enable] fetch_unit.jump_branch_enable_bF$buf0 d_lut_BUFX4
ABUFX4_250 [_4141_] _4141__bF$buf4 d_lut_BUFX4
ABUFX4_251 [_4141_] _4141__bF$buf3 d_lut_BUFX4
ABUFX4_252 [_4141_] _4141__bF$buf2 d_lut_BUFX4
ABUFX4_253 [_4141_] _4141__bF$buf1 d_lut_BUFX4
ABUFX4_254 [_4141_] _4141__bF$buf0 d_lut_BUFX4
ABUFX4_255 [_330_] _330__bF$buf4 d_lut_BUFX4
ABUFX4_256 [_330_] _330__bF$buf3 d_lut_BUFX4
ABUFX4_257 [_330_] _330__bF$buf2 d_lut_BUFX4
ABUFX4_258 [_330_] _330__bF$buf1 d_lut_BUFX4
ABUFX4_259 [_330_] _330__bF$buf0 d_lut_BUFX4
ABUFX4_260 [_3600_] _3600__bF$buf3 d_lut_BUFX4
ABUFX4_261 [_3600_] _3600__bF$buf2 d_lut_BUFX4
ABUFX4_262 [_3600_] _3600__bF$buf1 d_lut_BUFX4
ABUFX4_263 [_3600_] _3600__bF$buf0 d_lut_BUFX4
ABUFX4_264 [_2086_] _2086__bF$buf4 d_lut_BUFX4
ABUFX4_265 [_2086_] _2086__bF$buf3 d_lut_BUFX4
ABUFX4_266 [_2086_] _2086__bF$buf2 d_lut_BUFX4
ABUFX4_267 [_2086_] _2086__bF$buf1 d_lut_BUFX4
ABUFX4_268 [_2086_] _2086__bF$buf0 d_lut_BUFX4
ABUFX4_269 [_98_] _98__bF$buf4 d_lut_BUFX4
ABUFX4_270 [_98_] _98__bF$buf3 d_lut_BUFX4
ABUFX4_271 [_98_] _98__bF$buf2 d_lut_BUFX4
ABUFX4_272 [_98_] _98__bF$buf1 d_lut_BUFX4
ABUFX4_273 [_98_] _98__bF$buf0 d_lut_BUFX4
ABUFX4_274 [_2694_] _2694__bF$buf3 d_lut_BUFX4
ABUFX4_275 [_2694_] _2694__bF$buf2 d_lut_BUFX4
ABUFX4_276 [_2694_] _2694__bF$buf1 d_lut_BUFX4
ABUFX4_277 [_2694_] _2694__bF$buf0 d_lut_BUFX4
AINVX8_1 [reset] _526_ d_lut_INVX8
AINVX1_1 [gnd] _408_ d_lut_INVX1
ANAND2X1_1 [FW_source_1_0_ FW_enable_1_bF$buf7] _409_ d_lut_NAND2X1
AOAI21X1_1 [_408_ FW_enable_1_bF$buf6 _409_] bus_rs1_decode_wire_0_ d_lut_OAI21X1
AINVX1_2 [gnd] _410_ d_lut_INVX1
ANAND2X1_2 [FW_enable_1_bF$buf5 FW_source_1_1_] _411_ d_lut_NAND2X1
AOAI21X1_2 [_410_ FW_enable_1_bF$buf4 _411_] bus_rs1_decode_wire_1_ d_lut_OAI21X1
AINVX1_3 [gnd] _412_ d_lut_INVX1
ANAND2X1_3 [FW_enable_1_bF$buf3 FW_source_1_2_] _413_ d_lut_NAND2X1
AOAI21X1_3 [_412_ FW_enable_1_bF$buf2 _413_] bus_rs1_decode_wire_2_ d_lut_OAI21X1
AINVX1_4 [gnd] _414_ d_lut_INVX1
ANAND2X1_4 [FW_enable_1_bF$buf1 FW_source_1_3_] _415_ d_lut_NAND2X1
AOAI21X1_4 [_414_ FW_enable_1_bF$buf0 _415_] bus_rs1_decode_wire_3_ d_lut_OAI21X1
AINVX1_5 [gnd] _416_ d_lut_INVX1
ANAND2X1_5 [FW_enable_1_bF$buf7 FW_source_1_4_] _417_ d_lut_NAND2X1
AOAI21X1_5 [_416_ FW_enable_1_bF$buf6 _417_] bus_rs1_decode_wire_4_ d_lut_OAI21X1
AINVX1_6 [gnd] _418_ d_lut_INVX1
ANAND2X1_6 [FW_enable_1_bF$buf5 FW_source_1_5_] _419_ d_lut_NAND2X1
AOAI21X1_6 [_418_ FW_enable_1_bF$buf4 _419_] bus_rs1_decode_wire_5_ d_lut_OAI21X1
AINVX1_7 [gnd] _420_ d_lut_INVX1
ANAND2X1_7 [FW_enable_1_bF$buf3 FW_source_1_6_] _421_ d_lut_NAND2X1
AOAI21X1_7 [_420_ FW_enable_1_bF$buf2 _421_] bus_rs1_decode_wire_6_ d_lut_OAI21X1
AINVX1_8 [gnd] _422_ d_lut_INVX1
ANAND2X1_8 [FW_enable_1_bF$buf1 FW_source_1_7_] _423_ d_lut_NAND2X1
AOAI21X1_8 [_422_ FW_enable_1_bF$buf0 _423_] bus_rs1_decode_wire_7_ d_lut_OAI21X1
AINVX1_9 [gnd] _424_ d_lut_INVX1
ANAND2X1_9 [FW_enable_1_bF$buf7 FW_source_1_8_] _425_ d_lut_NAND2X1
AOAI21X1_9 [_424_ FW_enable_1_bF$buf6 _425_] bus_rs1_decode_wire_8_ d_lut_OAI21X1
AINVX1_10 [gnd] _426_ d_lut_INVX1
ANAND2X1_10 [FW_enable_1_bF$buf5 FW_source_1_9_] _427_ d_lut_NAND2X1
AOAI21X1_10 [_426_ FW_enable_1_bF$buf4 _427_] bus_rs1_decode_wire_9_ d_lut_OAI21X1
AINVX1_11 [gnd] _428_ d_lut_INVX1
ANAND2X1_11 [FW_enable_1_bF$buf3 FW_source_1_10_] _429_ d_lut_NAND2X1
AOAI21X1_11 [_428_ FW_enable_1_bF$buf2 _429_] bus_rs1_decode_wire_10_ d_lut_OAI21X1
AINVX1_12 [gnd] _430_ d_lut_INVX1
ANAND2X1_12 [FW_enable_1_bF$buf1 FW_source_1_11_] _431_ d_lut_NAND2X1
AOAI21X1_12 [_430_ FW_enable_1_bF$buf0 _431_] bus_rs1_decode_wire_11_ d_lut_OAI21X1
AINVX1_13 [gnd] _432_ d_lut_INVX1
ANAND2X1_13 [FW_enable_1_bF$buf7 FW_source_1_12_] _433_ d_lut_NAND2X1
AOAI21X1_13 [_432_ FW_enable_1_bF$buf6 _433_] bus_rs1_decode_wire_12_ d_lut_OAI21X1
AINVX1_14 [gnd] _434_ d_lut_INVX1
ANAND2X1_14 [FW_enable_1_bF$buf5 FW_source_1_13_] _435_ d_lut_NAND2X1
AOAI21X1_14 [_434_ FW_enable_1_bF$buf4 _435_] bus_rs1_decode_wire_13_ d_lut_OAI21X1
AINVX1_15 [gnd] _436_ d_lut_INVX1
ANAND2X1_15 [FW_enable_1_bF$buf3 FW_source_1_14_] _437_ d_lut_NAND2X1
AOAI21X1_15 [_436_ FW_enable_1_bF$buf2 _437_] bus_rs1_decode_wire_14_ d_lut_OAI21X1
AINVX1_16 [gnd] _438_ d_lut_INVX1
ANAND2X1_16 [FW_enable_1_bF$buf1 FW_source_1_15_] _439_ d_lut_NAND2X1
AOAI21X1_16 [_438_ FW_enable_1_bF$buf0 _439_] bus_rs1_decode_wire_15_ d_lut_OAI21X1
AINVX1_17 [gnd] _440_ d_lut_INVX1
ANAND2X1_17 [FW_enable_1_bF$buf7 FW_source_1_16_] _441_ d_lut_NAND2X1
AOAI21X1_17 [_440_ FW_enable_1_bF$buf6 _441_] bus_rs1_decode_wire_16_ d_lut_OAI21X1
AINVX1_18 [gnd] _442_ d_lut_INVX1
ANAND2X1_18 [FW_enable_1_bF$buf5 FW_source_1_17_] _443_ d_lut_NAND2X1
AOAI21X1_18 [_442_ FW_enable_1_bF$buf4 _443_] bus_rs1_decode_wire_17_ d_lut_OAI21X1
AINVX1_19 [gnd] _444_ d_lut_INVX1
ANAND2X1_19 [FW_enable_1_bF$buf3 FW_source_1_18_] _445_ d_lut_NAND2X1
AOAI21X1_19 [_444_ FW_enable_1_bF$buf2 _445_] bus_rs1_decode_wire_18_ d_lut_OAI21X1
AINVX1_20 [gnd] _446_ d_lut_INVX1
ANAND2X1_20 [FW_enable_1_bF$buf1 FW_source_1_19_] _447_ d_lut_NAND2X1
AOAI21X1_20 [_446_ FW_enable_1_bF$buf0 _447_] bus_rs1_decode_wire_19_ d_lut_OAI21X1
AINVX1_21 [gnd] _448_ d_lut_INVX1
ANAND2X1_21 [FW_enable_1_bF$buf7 FW_source_1_20_] _449_ d_lut_NAND2X1
AOAI21X1_21 [_448_ FW_enable_1_bF$buf6 _449_] bus_rs1_decode_wire_20_ d_lut_OAI21X1
AINVX1_22 [gnd] _450_ d_lut_INVX1
ANAND2X1_22 [FW_enable_1_bF$buf5 FW_source_1_21_] _451_ d_lut_NAND2X1
AOAI21X1_22 [_450_ FW_enable_1_bF$buf4 _451_] bus_rs1_decode_wire_21_ d_lut_OAI21X1
AINVX1_23 [gnd] _452_ d_lut_INVX1
ANAND2X1_23 [FW_enable_1_bF$buf3 FW_source_1_22_] _453_ d_lut_NAND2X1
AOAI21X1_23 [_452_ FW_enable_1_bF$buf2 _453_] bus_rs1_decode_wire_22_ d_lut_OAI21X1
AINVX1_24 [gnd] _454_ d_lut_INVX1
ANAND2X1_24 [FW_enable_1_bF$buf1 FW_source_1_23_] _455_ d_lut_NAND2X1
AOAI21X1_24 [_454_ FW_enable_1_bF$buf0 _455_] bus_rs1_decode_wire_23_ d_lut_OAI21X1
AINVX1_25 [gnd] _456_ d_lut_INVX1
ANAND2X1_25 [FW_enable_1_bF$buf7 FW_source_1_24_] _457_ d_lut_NAND2X1
AOAI21X1_25 [_456_ FW_enable_1_bF$buf6 _457_] bus_rs1_decode_wire_24_ d_lut_OAI21X1
AINVX1_26 [gnd] _458_ d_lut_INVX1
ANAND2X1_26 [FW_enable_1_bF$buf5 FW_source_1_25_] _459_ d_lut_NAND2X1
AOAI21X1_26 [_458_ FW_enable_1_bF$buf4 _459_] bus_rs1_decode_wire_25_ d_lut_OAI21X1
AINVX1_27 [gnd] _460_ d_lut_INVX1
ANAND2X1_27 [FW_enable_1_bF$buf3 FW_source_1_26_] _461_ d_lut_NAND2X1
AOAI21X1_27 [_460_ FW_enable_1_bF$buf2 _461_] bus_rs1_decode_wire_26_ d_lut_OAI21X1
AINVX1_28 [gnd] _462_ d_lut_INVX1
ANAND2X1_28 [FW_enable_1_bF$buf1 FW_source_1_27_] _463_ d_lut_NAND2X1
AOAI21X1_28 [_462_ FW_enable_1_bF$buf0 _463_] bus_rs1_decode_wire_27_ d_lut_OAI21X1
AINVX1_29 [gnd] _464_ d_lut_INVX1
ANAND2X1_29 [FW_enable_1_bF$buf7 FW_source_1_28_] _465_ d_lut_NAND2X1
AOAI21X1_29 [_464_ FW_enable_1_bF$buf6 _465_] bus_rs1_decode_wire_28_ d_lut_OAI21X1
AINVX1_30 [gnd] _466_ d_lut_INVX1
ANAND2X1_30 [FW_enable_1_bF$buf5 FW_source_1_29_] _467_ d_lut_NAND2X1
AOAI21X1_30 [_466_ FW_enable_1_bF$buf4 _467_] bus_rs1_decode_wire_29_ d_lut_OAI21X1
AINVX1_31 [gnd] _468_ d_lut_INVX1
ANAND2X1_31 [FW_enable_1_bF$buf3 FW_source_1_30_] _469_ d_lut_NAND2X1
AOAI21X1_31 [_468_ FW_enable_1_bF$buf2 _469_] bus_rs1_decode_wire_30_ d_lut_OAI21X1
AINVX1_32 [gnd] _470_ d_lut_INVX1
ANAND2X1_32 [FW_enable_1_bF$buf1 FW_source_1_31_] _471_ d_lut_NAND2X1
AOAI21X1_32 [_470_ FW_enable_1_bF$buf0 _471_] bus_rs1_decode_wire_31_ d_lut_OAI21X1
AINVX1_33 [gnd] _472_ d_lut_INVX1
ANAND2X1_33 [FW_source_2_0_ FW_enable_2_bF$buf7] _473_ d_lut_NAND2X1
AOAI21X1_33 [_472_ FW_enable_2_bF$buf6 _473_] bus_rs2_decode_wire_0_ d_lut_OAI21X1
AINVX1_34 [gnd] _474_ d_lut_INVX1
ANAND2X1_34 [FW_enable_2_bF$buf5 FW_source_2_1_] _475_ d_lut_NAND2X1
AOAI21X1_34 [_474_ FW_enable_2_bF$buf4 _475_] bus_rs2_decode_wire_1_ d_lut_OAI21X1
AINVX1_35 [gnd] _476_ d_lut_INVX1
ANAND2X1_35 [FW_enable_2_bF$buf3 FW_source_2_2_] _477_ d_lut_NAND2X1