* NGSPICE file created from phoeniX.ext - technology: scmos

* Black-box entry subcircuit for FILL abstract view
.subckt FILL gnd vdd
.ends

* Black-box entry subcircuit for NAND2X1 abstract view
.subckt NAND2X1 A B gnd Y vdd
.ends

* Black-box entry subcircuit for INVX1 abstract view
.subckt INVX1 A gnd Y vdd
.ends

* Black-box entry subcircuit for OAI21X1 abstract view
.subckt OAI21X1 A B C gnd Y vdd
.ends

* Black-box entry subcircuit for AND2X2 abstract view
.subckt AND2X2 A B gnd Y vdd
.ends

* Black-box entry subcircuit for MUX2X1 abstract view
.subckt MUX2X1 A B S gnd Y vdd
.ends

* Black-box entry subcircuit for AOI21X1 abstract view
.subckt AOI21X1 A B C gnd Y vdd
.ends

* Black-box entry subcircuit for AOI22X1 abstract view
.subckt AOI22X1 A B C D gnd Y vdd
.ends

* Black-box entry subcircuit for NAND3X1 abstract view
.subckt NAND3X1 A B C gnd Y vdd
.ends

* Black-box entry subcircuit for OAI22X1 abstract view
.subckt OAI22X1 A B C D gnd Y vdd
.ends

* Black-box entry subcircuit for DFFPOSX1 abstract view
.subckt DFFPOSX1 Q CLK D gnd vdd
.ends

* Black-box entry subcircuit for NOR2X1 abstract view
.subckt NOR2X1 A B gnd Y vdd
.ends

* Black-box entry subcircuit for INVX2 abstract view
.subckt INVX2 A gnd Y vdd
.ends

* Black-box entry subcircuit for BUFX4 abstract view
.subckt BUFX4 A gnd Y vdd
.ends

* Black-box entry subcircuit for OR2X2 abstract view
.subckt OR2X2 A B gnd Y vdd
.ends

* Black-box entry subcircuit for XNOR2X1 abstract view
.subckt XNOR2X1 A B gnd Y vdd
.ends

* Black-box entry subcircuit for INVX8 abstract view
.subckt INVX8 A gnd Y vdd
.ends

* Black-box entry subcircuit for NOR3X1 abstract view
.subckt NOR3X1 A B C gnd Y vdd
.ends

* Black-box entry subcircuit for CLKBUF1 abstract view
.subckt CLKBUF1 A gnd Y vdd
.ends

* Black-box entry subcircuit for XOR2X1 abstract view
.subckt XOR2X1 A B gnd Y vdd
.ends

* Black-box entry subcircuit for BUFX2 abstract view
.subckt BUFX2 A gnd Y vdd
.ends

* Black-box entry subcircuit for INVX4 abstract view
.subckt INVX4 A gnd Y vdd
.ends

.subckt phoeniX vdd gnd CLK reset instruction_memory_interface_data[0] instruction_memory_interface_data[1]
+ instruction_memory_interface_data[2] instruction_memory_interface_data[3] instruction_memory_interface_data[4]
+ instruction_memory_interface_data[5] instruction_memory_interface_data[6] instruction_memory_interface_data[7]
+ instruction_memory_interface_data[8] instruction_memory_interface_data[9] instruction_memory_interface_data[10]
+ instruction_memory_interface_data[11] instruction_memory_interface_data[12] instruction_memory_interface_data[13]
+ instruction_memory_interface_data[14] instruction_memory_interface_data[15] instruction_memory_interface_data[16]
+ instruction_memory_interface_data[17] instruction_memory_interface_data[18] instruction_memory_interface_data[19]
+ instruction_memory_interface_data[20] instruction_memory_interface_data[21] instruction_memory_interface_data[22]
+ instruction_memory_interface_data[23] instruction_memory_interface_data[24] instruction_memory_interface_data[25]
+ instruction_memory_interface_data[26] instruction_memory_interface_data[27] instruction_memory_interface_data[28]
+ instruction_memory_interface_data[29] instruction_memory_interface_data[30] instruction_memory_interface_data[31]
+ data_memory_interface_data[0] data_memory_interface_data[1] data_memory_interface_data[2]
+ data_memory_interface_data[3] data_memory_interface_data[4] data_memory_interface_data[5]
+ data_memory_interface_data[6] data_memory_interface_data[7] data_memory_interface_data[8]
+ data_memory_interface_data[9] data_memory_interface_data[10] data_memory_interface_data[11]
+ data_memory_interface_data[12] data_memory_interface_data[13] data_memory_interface_data[14]
+ data_memory_interface_data[15] data_memory_interface_data[16] data_memory_interface_data[17]
+ data_memory_interface_data[18] data_memory_interface_data[19] data_memory_interface_data[20]
+ data_memory_interface_data[21] data_memory_interface_data[22] data_memory_interface_data[23]
+ data_memory_interface_data[24] data_memory_interface_data[25] data_memory_interface_data[26]
+ data_memory_interface_data[27] data_memory_interface_data[28] data_memory_interface_data[29]
+ data_memory_interface_data[30] data_memory_interface_data[31] instruction_memory_interface_enable
+ instruction_memory_interface_state instruction_memory_interface_address[0] instruction_memory_interface_address[1]
+ instruction_memory_interface_address[2] instruction_memory_interface_address[3]
+ instruction_memory_interface_address[4] instruction_memory_interface_address[5]
+ instruction_memory_interface_address[6] instruction_memory_interface_address[7]
+ instruction_memory_interface_address[8] instruction_memory_interface_address[9]
+ instruction_memory_interface_address[10] instruction_memory_interface_address[11]
+ instruction_memory_interface_address[12] instruction_memory_interface_address[13]
+ instruction_memory_interface_address[14] instruction_memory_interface_address[15]
+ instruction_memory_interface_address[16] instruction_memory_interface_address[17]
+ instruction_memory_interface_address[18] instruction_memory_interface_address[19]
+ instruction_memory_interface_address[20] instruction_memory_interface_address[21]
+ instruction_memory_interface_address[22] instruction_memory_interface_address[23]
+ instruction_memory_interface_address[24] instruction_memory_interface_address[25]
+ instruction_memory_interface_address[26] instruction_memory_interface_address[27]
+ instruction_memory_interface_address[28] instruction_memory_interface_address[29]
+ instruction_memory_interface_address[30] instruction_memory_interface_address[31]
+ instruction_memory_interface_frame_mask[0] instruction_memory_interface_frame_mask[1]
+ instruction_memory_interface_frame_mask[2] instruction_memory_interface_frame_mask[3]
+ data_memory_interface_enable data_memory_interface_state data_memory_interface_address[0]
+ data_memory_interface_address[1] data_memory_interface_address[2] data_memory_interface_address[3]
+ data_memory_interface_address[4] data_memory_interface_address[5] data_memory_interface_address[6]
+ data_memory_interface_address[7] data_memory_interface_address[8] data_memory_interface_address[9]
+ data_memory_interface_address[10] data_memory_interface_address[11] data_memory_interface_address[12]
+ data_memory_interface_address[13] data_memory_interface_address[14] data_memory_interface_address[15]
+ data_memory_interface_address[16] data_memory_interface_address[17] data_memory_interface_address[18]
+ data_memory_interface_address[19] data_memory_interface_address[20] data_memory_interface_address[21]
+ data_memory_interface_address[22] data_memory_interface_address[23] data_memory_interface_address[24]
+ data_memory_interface_address[25] data_memory_interface_address[26] data_memory_interface_address[27]
+ data_memory_interface_address[28] data_memory_interface_address[29] data_memory_interface_address[30]
+ data_memory_interface_address[31] data_memory_interface_frame_mask[0] data_memory_interface_frame_mask[1]
+ data_memory_interface_frame_mask[2] data_memory_interface_frame_mask[3]
XFILL_9_6_0 gnd vdd FILL
XNAND2X1_580 INVX8_5/A MUX2X1_47/A gnd NAND2X1_580/Y vdd NAND2X1
XNAND2X1_591 AND2X2_56/B INVX2_55/A gnd OAI22X1_40/B vdd NAND2X1
XFILL_17_5_0 gnd vdd FILL
XFILL_41_3_0 gnd vdd FILL
XINVX1_402 INVX1_402/A gnd INVX1_402/Y vdd INVX1
XOAI21X1_360 INVX8_8/A INVX2_30/A NAND2X1_338/Y gnd OAI21X1_410/A vdd OAI21X1
XOAI21X1_371 NOR2X1_1/A AND2X2_25/Y OR2X2_44/B gnd OAI21X1_371/Y vdd OAI21X1
XOAI21X1_382 OR2X2_25/Y INVX8_5/A OAI21X1_381/Y gnd NOR2X1_223/B vdd OAI21X1
XAND2X2_5 AND2X2_5/A AND2X2_5/B gnd AND2X2_5/Y vdd AND2X2
XOAI21X1_393 BUFX4_39/Y NOR2X1_151/B OAI21X1_393/C gnd OAI21X1_393/Y vdd OAI21X1
XINVX1_413 INVX1_413/A gnd INVX1_413/Y vdd INVX1
XINVX1_424 INVX1_424/A gnd INVX1_424/Y vdd INVX1
XINVX1_435 INVX1_435/A gnd INVX1_435/Y vdd INVX1
XINVX1_468 BUFX2_39/A gnd INVX1_468/Y vdd INVX1
XINVX1_457 INVX1_457/A gnd INVX1_457/Y vdd INVX1
XINVX1_446 OR2X2_59/B gnd INVX1_446/Y vdd INVX1
XINVX1_479 BUFX2_56/A gnd INVX1_479/Y vdd INVX1
XFILL_32_3_0 gnd vdd FILL
XFILL_23_3_0 gnd vdd FILL
XFILL_6_4_0 gnd vdd FILL
XMUX2X1_17 INVX1_242/A INVX2_85/A INVX4_4/A gnd MUX2X1_17/Y vdd MUX2X1
XMUX2X1_39 MUX2X1_39/A INVX2_53/A INVX8_8/A gnd MUX2X1_43/B vdd MUX2X1
XMUX2X1_28 MUX2X1_28/A MUX2X1_28/B INVX8_4/A gnd MUX2X1_28/Y vdd MUX2X1
XFILL_14_3_0 gnd vdd FILL
XOAI21X1_190 BUFX4_13/Y BUFX4_196/Y OAI21X1_865/Y gnd NAND3X1_65/C vdd OAI21X1
XINVX1_210 INVX1_210/A gnd INVX1_210/Y vdd INVX1
XINVX1_243 INVX1_243/A gnd INVX1_243/Y vdd INVX1
XINVX1_232 NOR2X1_1/A gnd INVX1_232/Y vdd INVX1
XINVX1_221 INVX1_221/A gnd INVX1_221/Y vdd INVX1
XINVX1_254 MUX2X1_9/A gnd INVX1_254/Y vdd INVX1
XINVX1_265 OR2X2_10/Y gnd INVX1_265/Y vdd INVX1
XINVX1_276 INVX1_276/A gnd INVX1_276/Y vdd INVX1
XINVX1_287 INVX1_287/A gnd INVX1_287/Y vdd INVX1
XINVX1_298 AND2X2_19/Y gnd INVX1_298/Y vdd INVX1
XNAND2X1_21 BUFX4_18/Y NAND2X1_21/B gnd OAI21X1_21/C vdd NAND2X1
XNAND2X1_10 BUFX4_20/Y NAND2X1_10/B gnd OAI21X1_10/C vdd NAND2X1
XNAND2X1_32 BUFX4_20/Y NAND2X1_32/B gnd OAI21X1_32/C vdd NAND2X1
XNAND2X1_43 BUFX4_30/Y NAND2X1_43/B gnd OAI21X1_43/C vdd NAND2X1
XNAND2X1_76 INVX1_253/A BUFX4_163/Y gnd NAND2X1_76/Y vdd NAND2X1
XNAND2X1_65 NOR2X1_6/A NOR2X1_6/B gnd OR2X2_1/A vdd NAND2X1
XNAND2X1_54 BUFX4_30/Y NAND2X1_54/B gnd NAND2X1_54/Y vdd NAND2X1
XNAND2X1_98 NAND2X1_98/A BUFX4_156/Y gnd NAND2X1_98/Y vdd NAND2X1
XNAND2X1_87 INVX1_271/A BUFX4_158/Y gnd NAND2X1_87/Y vdd NAND2X1
XFILL_35_1 gnd vdd FILL
XAOI21X1_225 INVX1_495/A INVX1_567/Y AOI21X1_225/C gnd NAND3X1_254/C vdd AOI21X1
XAOI21X1_203 INVX1_426/Y AOI21X1_203/B INVX1_427/A gnd NOR2X1_366/B vdd AOI21X1
XAOI21X1_214 OAI21X1_773/C AND2X2_69/A INVX2_28/A gnd OAI21X1_783/A vdd AOI21X1
XAOI21X1_236 NAND2X1_962/Y NOR2X1_435/Y NOR2X1_436/Y gnd AOI21X1_236/Y vdd AOI21X1
XAOI21X1_247 AND2X2_95/Y OAI21X1_928/Y OAI21X1_930/Y gnd AOI21X1_247/Y vdd AOI21X1
XAOI21X1_258 AOI21X1_263/A AOI21X1_258/B OAI22X1_54/Y gnd OAI21X1_986/A vdd AOI21X1
XAOI21X1_269 INVX1_759/A NOR2X1_475/Y BUFX2_36/A gnd AOI21X1_271/B vdd AOI21X1
XAOI22X1_30 AOI22X1_30/A BUFX4_236/Y BUFX4_256/Y AOI22X1_30/D gnd AOI22X1_30/Y vdd
+ AOI22X1
XAOI22X1_41 NOR2X1_15/Y NOR2X1_14/Y NOR2X1_18/Y INVX1_229/A gnd AOI22X1_41/Y vdd AOI22X1
XAOI22X1_74 AOI22X1_74/A AOI21X1_98/A AOI22X1_74/C AOI22X1_85/B gnd NAND3X1_91/C vdd
+ AOI22X1
XAOI22X1_52 MUX2X1_3/A BUFX4_235/Y BUFX4_151/Y MUX2X1_3/B gnd NOR2X1_40/B vdd AOI22X1
XAOI22X1_63 AOI22X1_63/A BUFX4_233/Y AND2X2_11/A OR2X2_55/A gnd NOR2X1_55/B vdd AOI22X1
XAOI22X1_96 AOI22X1_96/A AOI22X1_96/B AOI22X1_96/C AOI22X1_96/D gnd AOI22X1_96/Y vdd
+ AOI22X1
XAOI22X1_85 BUFX4_190/Y AOI22X1_85/B NOR2X1_232/A BUFX4_154/Y gnd AOI22X1_85/Y vdd
+ AOI22X1
XNAND3X1_229 BUFX4_221/Y NAND3X1_228/Y NAND3X1_229/C gnd NAND2X1_768/B vdd NAND3X1
XNAND3X1_207 BUFX4_218/Y NAND3X1_207/B NAND3X1_207/C gnd NAND2X1_735/B vdd NAND3X1
XNAND3X1_218 INVX1_532/Y BUFX4_207/Y BUFX4_34/Y gnd NAND3X1_218/Y vdd NAND3X1
XOAI22X1_3 INVX2_3/Y BUFX2_91/A INVX2_1/A INVX1_132/Y gnd NOR3X1_16/B vdd OAI22X1
XFILL_30_6_1 gnd vdd FILL
XDFFPOSX1_328 INVX1_279/A CLKBUF1_25/Y OAI21X1_896/Y gnd vdd DFFPOSX1
XDFFPOSX1_317 INVX2_12/A CLKBUF1_56/Y OAI21X1_885/Y gnd vdd DFFPOSX1
XDFFPOSX1_306 INVX2_7/A CLKBUF1_34/Y OAI21X1_879/Y gnd vdd DFFPOSX1
XDFFPOSX1_339 XOR2X1_1/A CLKBUF1_9/Y NOR2X1_22/A gnd vdd DFFPOSX1
XNAND2X1_409 BUFX4_213/Y NAND2X1_409/B gnd INVX1_389/A vdd NAND2X1
XFILL_37_2_0 gnd vdd FILL
XFILL_38_7_1 gnd vdd FILL
XNOR2X1_420 INVX1_467/A INVX1_664/Y gnd NOR2X1_422/A vdd NOR2X1
XNOR2X1_442 NOR2X1_442/A NOR2X1_442/B gnd NOR2X1_442/Y vdd NOR2X1
XNOR2X1_431 MUX2X1_9/B INVX2_84/Y gnd NOR2X1_431/Y vdd NOR2X1
XNOR2X1_475 NOR2X1_475/A NOR2X1_475/B gnd NOR2X1_475/Y vdd NOR2X1
XNOR2X1_464 OR2X2_59/A OR2X2_59/B gnd OAI22X1_52/D vdd NOR2X1
XNOR2X1_453 OR2X2_53/B INVX1_704/Y gnd NOR2X1_453/Y vdd NOR2X1
XNOR2X1_486 INVX2_88/A NOR3X1_73/B gnd BUFX4_253/A vdd NOR2X1
XFILL_20_1_0 gnd vdd FILL
XOAI21X1_904 INVX1_700/A INVX1_671/Y NAND2X1_939/Y gnd NOR2X1_425/B vdd OAI21X1
XFILL_21_6_1 gnd vdd FILL
XOAI21X1_915 INVX1_306/A INVX2_81/Y AND2X2_82/B gnd NOR3X1_71/C vdd OAI21X1
XOAI21X1_948 NOR2X1_487/A NOR3X1_78/C INVX1_756/A gnd BUFX2_33/A vdd OAI21X1
XOAI21X1_926 NOR2X1_457/Y NOR2X1_458/Y INVX1_684/A gnd AOI21X1_246/B vdd OAI21X1
XOAI21X1_937 AOI21X1_250/Y OAI21X1_938/A OAI21X1_937/C gnd OR2X2_67/A vdd OAI21X1
XOAI21X1_959 INVX4_14/Y INVX1_721/Y OAI21X1_959/C gnd OAI21X1_959/Y vdd OAI21X1
XINVX2_12 INVX2_12/A gnd INVX2_12/Y vdd INVX2
XINVX2_34 INVX2_34/A gnd INVX2_34/Y vdd INVX2
XINVX2_45 INVX2_45/A gnd INVX2_45/Y vdd INVX2
XINVX2_23 INVX2_23/A gnd INVX2_23/Y vdd INVX2
XNAND2X1_921 NOR2X1_22/A NOR2X1_411/Y gnd NAND2X1_921/Y vdd NAND2X1
XNAND2X1_910 INVX1_636/Y BUFX4_94/Y gnd NAND3X1_321/C vdd NAND2X1
XINVX2_67 INVX2_67/A gnd INVX2_67/Y vdd INVX2
XINVX2_56 INVX2_56/A gnd INVX2_56/Y vdd INVX2
XNAND2X1_954 INVX2_85/A OR2X2_60/B gnd AOI22X1_131/B vdd NAND2X1
XNAND2X1_943 INVX1_327/A INVX1_674/Y gnd NAND2X1_943/Y vdd NAND2X1
XNAND2X1_932 INVX1_668/A INVX2_80/A gnd NAND2X1_932/Y vdd NAND2X1
XINVX2_78 INVX2_75/A gnd INVX2_78/Y vdd INVX2
XNAND2X1_998 INVX1_759/A NOR2X1_475/Y gnd BUFX2_34/A vdd NAND2X1
XNAND2X1_987 OAI21X1_912/C NAND2X1_987/B gnd NOR2X1_459/A vdd NAND2X1
XNAND2X1_976 MUX2X1_1/B INVX2_86/Y gnd AND2X2_91/B vdd NAND2X1
XNAND2X1_965 NAND2X1_963/Y AND2X2_88/Y gnd AOI21X1_239/A vdd NAND2X1
XINVX2_89 INVX2_89/A gnd INVX2_89/Y vdd INVX2
XFILL_4_7_1 gnd vdd FILL
XFILL_28_2_0 gnd vdd FILL
XFILL_29_7_1 gnd vdd FILL
XFILL_3_2_0 gnd vdd FILL
XOAI21X1_19 INVX1_19/Y BUFX4_19/Y OAI21X1_19/C gnd OAI21X1_19/Y vdd OAI21X1
XFILL_11_1_0 gnd vdd FILL
XFILL_12_6_1 gnd vdd FILL
XFILL_19_2_0 gnd vdd FILL
XDFFPOSX1_103 INVX1_216/A CLKBUF1_63/Y OAI21X1_147/C gnd vdd DFFPOSX1
XDFFPOSX1_125 DFFPOSX1_13/D CLKBUF1_51/Y INVX1_243/A gnd vdd DFFPOSX1
XDFFPOSX1_136 DFFPOSX1_24/D CLKBUF1_55/Y INVX2_14/A gnd vdd DFFPOSX1
XDFFPOSX1_114 NOR2X1_3/B CLKBUF1_62/Y NOR2X1_6/B gnd vdd DFFPOSX1
XDFFPOSX1_169 BUFX2_12/A CLKBUF1_10/Y XNOR2X1_25/Y gnd vdd DFFPOSX1
XDFFPOSX1_158 INVX2_87/A CLKBUF1_46/Y NOR2X1_69/Y gnd vdd DFFPOSX1
XDFFPOSX1_147 DFFPOSX1_35/D CLKBUF1_50/Y INVX1_285/A gnd vdd DFFPOSX1
XNAND2X1_217 INVX4_4/A AOI22X1_57/A gnd OAI21X1_295/C vdd NAND2X1
XNAND2X1_206 INVX4_4/Y INVX1_318/Y gnd OAI21X1_291/C vdd NAND2X1
XNAND2X1_228 INVX2_35/Y MUX2X1_2/Y gnd NAND2X1_228/Y vdd NAND2X1
XNAND2X1_239 INVX2_36/A INVX2_53/A gnd INVX1_329/A vdd NAND2X1
XBUFX4_190 BUFX4_188/A gnd BUFX4_190/Y vdd BUFX4
XNOR2X1_250 NOR2X1_250/A NOR2X1_247/Y gnd NOR2X1_250/Y vdd NOR2X1
XNOR2X1_261 INVX8_3/A MUX2X1_20/Y gnd INVX1_391/A vdd NOR2X1
XNOR2X1_294 OAI22X1_7/C OR2X2_34/A gnd NOR2X1_294/Y vdd NOR2X1
XNOR2X1_272 BUFX4_176/Y NOR2X1_203/B gnd AND2X2_45/A vdd NOR2X1
XNOR2X1_283 NOR3X1_56/A NOR3X1_56/C gnd NOR2X1_283/Y vdd NOR2X1
XOAI21X1_712 NOR2X1_308/B NOR2X1_143/A AOI21X1_186/Y gnd AOI21X1_203/B vdd OAI21X1
XOAI21X1_701 NAND2X1_595/B INVX8_4/A NAND2X1_572/Y gnd NOR2X1_339/B vdd OAI21X1
XOAI21X1_723 INVX2_18/A OAI21X1_722/Y OAI21X1_723/C gnd NAND3X1_165/A vdd OAI21X1
XOAI21X1_767 AND2X2_71/Y NOR2X1_371/Y AND2X2_56/B gnd OAI21X1_768/C vdd OAI21X1
XOAI21X1_745 INVX4_2/Y BUFX4_40/Y NAND2X1_334/Y gnd OAI21X1_745/Y vdd OAI21X1
XOAI21X1_734 INVX2_16/Y INVX2_17/Y OAI21X1_734/C gnd OAI21X1_734/Y vdd OAI21X1
XOAI21X1_756 NOR2X1_366/Y OAI21X1_755/Y AND2X2_69/Y gnd OAI21X1_756/Y vdd OAI21X1
XOAI21X1_778 AND2X2_74/Y AND2X2_72/Y BUFX4_127/Y gnd OAI21X1_779/C vdd OAI21X1
XOAI21X1_789 BUFX4_180/Y INVX1_442/Y OAI21X1_789/C gnd OAI21X1_789/Y vdd OAI21X1
XNAND2X1_762 NAND2X1_762/A NAND2X1_762/B gnd NAND2X1_18/B vdd NAND2X1
XNAND2X1_751 OAI21X1_79/Y BUFX4_135/Y gnd NAND2X1_753/A vdd NAND2X1
XNAND2X1_740 INVX1_523/Y BUFX4_202/Y gnd NAND3X1_211/C vdd NAND2X1
XNAND2X1_773 INVX1_545/Y BUFX4_204/Y gnd NAND3X1_233/C vdd NAND2X1
XNAND2X1_784 OAI21X1_90/Y BUFX4_132/Y gnd NAND2X1_784/Y vdd NAND2X1
XNAND2X1_795 NAND2X1_795/A NAND2X1_795/B gnd NAND2X1_29/B vdd NAND2X1
XFILL_43_0_0 gnd vdd FILL
XBUFX4_52 INVX8_3/Y gnd BUFX4_52/Y vdd BUFX4
XBUFX4_41 INVX8_8/Y gnd BUFX4_41/Y vdd BUFX4
XBUFX4_30 BUFX4_27/A gnd BUFX4_30/Y vdd BUFX4
XBUFX4_74 INVX8_1/Y gnd BUFX4_74/Y vdd BUFX4
XBUFX4_85 INVX8_9/Y gnd BUFX4_85/Y vdd BUFX4
XBUFX4_63 BUFX4_62/A gnd BUFX4_63/Y vdd BUFX4
XBUFX4_96 BUFX4_98/A gnd BUFX4_96/Y vdd BUFX4
XFILL_34_0_0 gnd vdd FILL
XFILL_35_5_1 gnd vdd FILL
XOR2X2_11 OR2X2_11/A OR2X2_11/B gnd OR2X2_11/Y vdd OR2X2
XOR2X2_33 OR2X2_33/A OR2X2_33/B gnd OR2X2_33/Y vdd OR2X2
XOR2X2_22 OR2X2_22/A OR2X2_22/B gnd OR2X2_23/B vdd OR2X2
XOR2X2_4 OR2X2_4/A OR2X2_4/B gnd OR2X2_4/Y vdd OR2X2
XOR2X2_44 OR2X2_44/A OR2X2_44/B gnd OR2X2_44/Y vdd OR2X2
XOR2X2_66 OR2X2_66/A OR2X2_66/B gnd OR2X2_67/B vdd OR2X2
XOR2X2_55 OR2X2_55/A OR2X2_55/B gnd OR2X2_55/Y vdd OR2X2
XXNOR2X1_6 XNOR2X1_6/A INVX2_6/A gnd XNOR2X1_7/B vdd XNOR2X1
XFILL_1_5_1 gnd vdd FILL
XFILL_25_0_0 gnd vdd FILL
XFILL_26_5_1 gnd vdd FILL
XFILL_0_0_0 gnd vdd FILL
XINVX8_11 INVX8_11/A gnd INVX8_11/Y vdd INVX8
XINVX1_6 gnd gnd INVX1_6/Y vdd INVX1
XOAI21X1_520 OAI21X1_520/A INVX8_3/A NAND2X1_477/Y gnd OR2X2_30/A vdd OAI21X1
XOAI21X1_531 INVX8_8/A MUX2X1_8/Y OAI21X1_351/C gnd OAI21X1_531/Y vdd OAI21X1
XOAI21X1_553 OAI22X1_9/A OAI22X1_25/C AOI22X1_71/A gnd OAI21X1_553/Y vdd OAI21X1
XOAI21X1_575 INVX1_396/Y MUX2X1_40/S NAND2X1_520/Y gnd OAI21X1_621/A vdd OAI21X1
XOAI21X1_542 INVX8_5/A MUX2X1_36/B NAND2X1_496/Y gnd NAND2X1_497/B vdd OAI21X1
XOAI21X1_564 INVX2_61/Y OAI22X1_8/A OAI21X1_564/C gnd OAI21X1_565/B vdd OAI21X1
XINVX1_617 INVX1_617/A gnd INVX1_617/Y vdd INVX1
XOAI21X1_597 INVX2_66/A INVX8_3/A AOI21X1_136/Y gnd AOI21X1_137/A vdd OAI21X1
XOAI21X1_586 MUX2X1_32/Y BUFX4_56/Y BUFX4_128/Y gnd AOI21X1_126/C vdd OAI21X1
XINVX1_606 INVX1_533/A gnd INVX1_606/Y vdd INVX1
XINVX1_628 INVX1_628/A gnd INVX1_628/Y vdd INVX1
XINVX1_639 INVX1_639/A gnd INVX1_639/Y vdd INVX1
XFILL_9_6_1 gnd vdd FILL
XFILL_8_1_0 gnd vdd FILL
XNAND2X1_570 AND2X2_52/Y NOR2X1_336/Y gnd NAND2X1_570/Y vdd NAND2X1
XNAND2X1_581 INVX4_7/A AND2X2_40/A gnd NAND2X1_581/Y vdd NAND2X1
XNAND2X1_592 INVX1_422/A NOR2X1_355/Y gnd NAND3X1_166/C vdd NAND2X1
XFILL_16_0_0 gnd vdd FILL
XFILL_17_5_1 gnd vdd FILL
XFILL_41_3_1 gnd vdd FILL
XOAI21X1_350 BUFX4_42/Y MUX2X1_7/Y OAI21X1_350/C gnd OAI21X1_350/Y vdd OAI21X1
XOAI21X1_361 NOR2X1_201/B NOR2X1_160/Y MUX2X1_47/S gnd OAI21X1_362/C vdd OAI21X1
XOAI21X1_383 INVX8_4/A OAI21X1_380/Y OAI21X1_383/C gnd NOR2X1_251/B vdd OAI21X1
XOAI21X1_372 INVX1_359/Y INVX4_4/A OAI21X1_372/C gnd OAI21X1_372/Y vdd OAI21X1
XAND2X2_6 AND2X2_6/A AND2X2_6/B gnd AND2X2_6/Y vdd AND2X2
XINVX1_403 INVX1_403/A gnd INVX1_403/Y vdd INVX1
XOAI21X1_394 INVX8_5/A OAI21X1_394/B NAND2X1_380/Y gnd OAI21X1_394/Y vdd OAI21X1
XINVX1_425 INVX1_425/A gnd INVX1_425/Y vdd INVX1
XINVX1_414 AND2X2_59/B gnd INVX1_414/Y vdd INVX1
XINVX1_469 BUFX2_40/A gnd INVX1_469/Y vdd INVX1
XINVX1_458 INVX1_458/A gnd INVX1_458/Y vdd INVX1
XINVX1_436 INVX1_436/A gnd INVX1_436/Y vdd INVX1
XINVX1_447 OR2X2_58/B gnd INVX1_447/Y vdd INVX1
XFILL_32_3_1 gnd vdd FILL
XFILL_23_3_1 gnd vdd FILL
XFILL_6_4_1 gnd vdd FILL
XMUX2X1_18 INVX1_239/A OR2X2_61/A INVX4_4/A gnd AND2X2_34/A vdd MUX2X1
XMUX2X1_29 MUX2X1_28/Y MUX2X1_29/B BUFX4_58/Y gnd MUX2X1_29/Y vdd MUX2X1
XFILL_14_3_1 gnd vdd FILL
XAOI22X1_1 INVX2_2/Y OR2X2_52/B INVX2_1/A INVX1_132/Y gnd AND2X2_3/B vdd AOI22X1
XOAI21X1_180 BUFX4_16/Y BUFX4_198/Y OAI21X1_847/Y gnd NAND3X1_45/C vdd OAI21X1
XOAI21X1_191 BUFX4_16/Y BUFX4_198/Y OAI21X1_866/Y gnd NAND3X1_67/C vdd OAI21X1
XINVX1_200 INVX1_200/A gnd INVX1_200/Y vdd INVX1
XINVX1_222 INVX1_222/A gnd INVX1_222/Y vdd INVX1
XINVX1_244 INVX1_244/A gnd INVX1_244/Y vdd INVX1
XINVX1_233 AOI21X1_7/A gnd INVX1_233/Y vdd INVX1
XINVX1_211 INVX1_211/A gnd INVX1_211/Y vdd INVX1
XINVX1_255 MUX2X1_9/B gnd INVX1_255/Y vdd INVX1
XINVX1_277 OR2X2_14/Y gnd INVX1_277/Y vdd INVX1
XINVX1_266 MUX2X1_1/A gnd INVX1_266/Y vdd INVX1
XINVX1_299 NOR2X1_64/Y gnd INVX1_299/Y vdd INVX1
XINVX1_288 INVX1_288/A gnd INVX1_288/Y vdd INVX1
XNAND2X1_22 BUFX4_24/Y NAND2X1_22/B gnd OAI21X1_22/C vdd NAND2X1
XNAND2X1_11 BUFX4_20/Y NAND2X1_11/B gnd OAI21X1_11/C vdd NAND2X1
XNAND2X1_33 NAND2X1_33/A BUFX4_28/Y gnd OAI21X1_33/C vdd NAND2X1
XNAND2X1_77 INVX2_9/A BUFX4_163/Y gnd NAND2X1_77/Y vdd NAND2X1
XNAND2X1_66 AND2X2_1/Y NOR2X1_1/Y gnd NOR2X1_2/B vdd NAND2X1
XNAND2X1_44 BUFX4_29/Y NAND2X1_44/B gnd OAI21X1_44/C vdd NAND2X1
XNAND2X1_55 BUFX4_25/Y NAND2X1_55/B gnd OAI21X1_55/C vdd NAND2X1
XNAND2X1_88 INVX1_273/A BUFX4_161/Y gnd NAND2X1_88/Y vdd NAND2X1
XNAND2X1_99 INVX1_99/Y NOR2X1_3/Y gnd BUFX4_194/A vdd NAND2X1
XFILL_35_2 gnd vdd FILL
XAOI21X1_215 INVX1_473/Y NOR2X1_382/Y BUFX2_49/A gnd AOI21X1_215/Y vdd AOI21X1
XAOI21X1_204 NOR2X1_367/Y INVX2_71/Y BUFX4_88/Y gnd AND2X2_69/B vdd AOI21X1
XAOI21X1_237 NOR2X1_438/Y AND2X2_95/A NOR2X1_437/Y gnd AOI21X1_237/Y vdd AOI21X1
XAOI21X1_248 AOI22X1_130/Y OAI21X1_910/Y AOI21X1_248/C gnd OAI21X1_932/A vdd AOI21X1
XAOI21X1_226 BUFX2_90/A INVX1_571/Y INVX1_572/Y gnd AOI21X1_226/Y vdd AOI21X1
XAOI21X1_259 AOI21X1_259/A AOI21X1_259/B INVX4_12/A gnd OAI21X1_993/B vdd AOI21X1
XAOI22X1_42 MUX2X1_14/A AND2X2_12/A AND2X2_11/A OR2X2_64/A gnd OR2X2_9/A vdd AOI22X1
XAOI22X1_31 AOI22X1_31/A BUFX4_238/Y BUFX4_259/Y AOI22X1_31/D gnd AOI22X1_31/Y vdd
+ AOI22X1
XAOI22X1_20 AOI22X1_20/A BUFX4_238/Y BUFX4_256/Y AOI22X1_20/D gnd AOI22X1_20/Y vdd
+ AOI22X1
XAOI22X1_53 AOI22X1_53/A BUFX4_231/Y BUFX4_150/Y INVX1_327/A gnd NOR2X1_41/B vdd AOI22X1
XAOI22X1_75 INVX1_349/Y AOI22X1_75/B INVX1_305/Y AOI22X1_75/D gnd AOI22X1_75/Y vdd
+ AOI22X1
XAOI22X1_64 AOI22X1_64/A BUFX4_233/Y BUFX4_148/Y OR2X2_54/A gnd NOR2X1_56/B vdd AOI22X1
XAOI22X1_97 OAI22X1_8/B BUFX4_153/Y OR2X2_24/Y AOI22X1_97/D gnd AOI22X1_97/Y vdd AOI22X1
XAOI22X1_86 AOI22X1_86/A BUFX4_154/Y OR2X2_24/Y AND2X2_35/B gnd AOI22X1_86/Y vdd AOI22X1
XNAND3X1_208 INVX1_522/Y BUFX4_206/Y BUFX4_33/Y gnd NAND3X1_208/Y vdd NAND3X1
XNAND3X1_219 BUFX4_218/Y NAND3X1_218/Y NAND3X1_219/C gnd NAND2X1_753/B vdd NAND3X1
XOAI22X1_4 INVX2_1/Y INVX1_495/A INVX2_3/A AOI22X1_6/D gnd NOR3X1_17/A vdd OAI22X1
XDFFPOSX1_329 INVX1_283/A CLKBUF1_1/Y OAI21X1_897/Y gnd vdd DFFPOSX1
XDFFPOSX1_318 INVX2_13/A CLKBUF1_42/Y OAI21X1_886/Y gnd vdd DFFPOSX1
XDFFPOSX1_307 INVX1_234/A CLKBUF1_34/Y OAI21X1_880/Y gnd vdd DFFPOSX1
XFILL_37_2_1 gnd vdd FILL
XNOR2X1_410 NOR2X1_410/A NOR2X1_410/B gnd NOR2X1_410/Y vdd NOR2X1
XNOR2X1_432 NOR2X1_432/A INVX1_691/A gnd NOR2X1_432/Y vdd NOR2X1
XNOR2X1_421 INVX1_664/A INVX1_665/Y gnd NOR2X1_422/B vdd NOR2X1
XNOR2X1_443 OR2X2_54/A OR2X2_54/B gnd OAI22X1_51/B vdd NOR2X1
XNOR2X1_465 OR2X2_68/Y NOR2X1_465/B gnd NOR2X1_465/Y vdd NOR2X1
XNOR2X1_454 NOR2X1_454/A NOR2X1_454/B gnd NOR2X1_454/Y vdd NOR2X1
XNOR2X1_476 INVX4_12/Y INVX2_87/Y gnd NOR2X1_476/Y vdd NOR2X1
XNOR2X1_487 NOR2X1_487/A NOR3X1_78/C gnd NOR2X1_487/Y vdd NOR2X1
XOAI21X1_905 INVX1_325/A INVX2_83/Y NAND2X1_943/Y gnd NOR3X1_70/A vdd OAI21X1
XOAI21X1_916 NOR2X1_445/Y NAND2X1_943/Y OAI21X1_906/C gnd AOI21X1_251/B vdd OAI21X1
XOAI21X1_927 OR2X2_65/Y AND2X2_94/Y INVX1_708/Y gnd OAI21X1_927/Y vdd OAI21X1
XFILL_20_1_1 gnd vdd FILL
XOAI21X1_938 OAI21X1_938/A NAND2X1_992/Y NOR2X1_455/Y gnd OAI21X1_938/Y vdd OAI21X1
XOAI21X1_949 NOR3X1_77/Y NOR3X1_78/Y INVX4_12/Y gnd AOI21X1_263/A vdd OAI21X1
XINVX2_35 INVX2_35/A gnd INVX2_35/Y vdd INVX2
XINVX2_13 INVX2_13/A gnd INVX2_13/Y vdd INVX2
XINVX2_24 INVX2_24/A gnd INVX2_24/Y vdd INVX2
XNAND2X1_911 NAND2X1_909/Y NAND2X1_911/B gnd NAND2X1_63/B vdd NAND2X1
XNAND2X1_900 OAI21X1_92/Y BUFX4_59/Y gnd NAND2X1_900/Y vdd NAND2X1
XNAND2X1_922 OR2X2_8/B NOR2X1_411/Y gnd OAI21X1_878/C vdd NAND2X1
XINVX2_57 INVX2_57/A gnd INVX2_57/Y vdd INVX2
XINVX2_68 INVX2_68/A gnd INVX2_68/Y vdd INVX2
XINVX2_46 INVX2_46/A gnd INVX2_46/Y vdd INVX2
XNAND2X1_955 OR2X2_61/A OR2X2_61/B gnd AOI22X1_131/C vdd NAND2X1
XNAND2X1_944 INVX1_325/A INVX2_83/Y gnd OAI21X1_906/C vdd NAND2X1
XNAND2X1_933 INVX1_668/Y INVX2_80/Y gnd NAND2X1_933/Y vdd NAND2X1
XINVX2_79 INVX2_79/A gnd INVX2_79/Y vdd INVX2
XAND2X2_100 AND2X2_100/A NAND3X1_1/B gnd AND2X2_100/Y vdd AND2X2
XNAND2X1_977 AND2X2_91/Y NAND2X1_975/Y gnd NAND2X1_977/Y vdd NAND2X1
XNAND2X1_988 AND2X2_86/A AND2X2_86/B gnd NOR2X1_459/B vdd NAND2X1
XNAND2X1_966 AND2X2_86/Y NOR2X1_430/Y gnd OAI21X1_913/A vdd NAND2X1
XNAND2X1_999 INVX2_89/Y AND2X2_98/Y gnd NOR2X1_487/A vdd NAND2X1
XFILL_3_2_1 gnd vdd FILL
XFILL_28_2_1 gnd vdd FILL
XFILL_11_1_1 gnd vdd FILL
XFILL_19_2_1 gnd vdd FILL
XDFFPOSX1_126 DFFPOSX1_14/D CLKBUF1_32/Y INVX1_245/A gnd vdd DFFPOSX1
XDFFPOSX1_137 DFFPOSX1_25/D CLKBUF1_19/Y INVX1_261/A gnd vdd DFFPOSX1
XDFFPOSX1_104 INVX1_217/A CLKBUF1_3/Y OAI21X1_149/C gnd vdd DFFPOSX1
XDFFPOSX1_115 NOR2X1_3/A CLKBUF1_62/Y NOR2X1_6/A gnd vdd DFFPOSX1
XDFFPOSX1_159 INVX4_12/A CLKBUF1_4/Y XNOR2X1_5/Y gnd vdd DFFPOSX1
XDFFPOSX1_148 DFFPOSX1_36/D CLKBUF1_19/Y INVX1_288/A gnd vdd DFFPOSX1
XNAND2X1_207 NOR2X1_99/A NOR2X1_332/B gnd AND2X2_59/A vdd NAND2X1
XNAND2X1_229 NAND2X1_228/Y INVX1_402/A gnd INVX1_403/A vdd NAND2X1
XNAND2X1_218 INVX2_32/A MUX2X1_44/A gnd INVX1_408/A vdd NAND2X1
XBUFX4_180 BUFX4_178/A gnd BUFX4_180/Y vdd BUFX4
XBUFX4_191 BUFX4_194/A gnd OR2X2_2/B vdd BUFX4
XNOR2X1_240 NOR2X1_239/Y NOR2X1_238/Y gnd INVX1_387/A vdd NOR2X1
XNOR2X1_251 INVX8_3/A NOR2X1_251/B gnd AND2X2_40/A vdd NOR2X1
XNOR2X1_273 INVX4_5/Y AND2X2_45/Y gnd NOR2X1_273/Y vdd NOR2X1
XNOR2X1_284 NOR2X1_284/A NOR2X1_284/B gnd NOR2X1_284/Y vdd NOR2X1
XNOR2X1_262 NOR2X1_262/A NOR2X1_135/B gnd AOI22X1_94/D vdd NOR2X1
XNOR2X1_295 NOR2X1_295/A NOR2X1_295/B gnd OR2X2_35/B vdd NOR2X1
XOAI21X1_702 INVX2_55/Y NOR2X1_339/B BUFX4_128/Y gnd OAI21X1_702/Y vdd OAI21X1
XOAI21X1_724 INVX4_3/Y BUFX4_38/Y NAND2X1_583/Y gnd INVX1_421/A vdd OAI21X1
XOAI21X1_713 NOR2X1_80/Y INVX2_19/Y AOI21X1_203/B gnd OAI21X1_732/A vdd OAI21X1
XOAI21X1_757 OAI21X1_736/Y AND2X2_70/B MUX2X1_49/S gnd OAI22X1_42/B vdd OAI21X1
XOAI21X1_746 INVX8_5/A OAI21X1_745/Y NAND2X1_594/Y gnd OAI21X1_747/B vdd OAI21X1
XOAI21X1_735 INVX1_422/A OAI21X1_734/Y OAI21X1_735/C gnd NAND3X1_167/A vdd OAI21X1
XOAI21X1_779 OAI21X1_779/A BUFX4_127/Y OAI21X1_779/C gnd OAI21X1_779/Y vdd OAI21X1
XOAI21X1_768 AND2X2_56/B OAI22X1_34/B OAI21X1_768/C gnd AOI21X1_210/B vdd OAI21X1
XNAND2X1_730 OAI21X1_72/Y BUFX4_132/Y gnd NAND2X1_730/Y vdd NAND2X1
XNAND2X1_741 NAND2X1_739/Y NAND2X1_741/B gnd NAND2X1_11/B vdd NAND2X1
XNAND2X1_763 OAI21X1_83/Y BUFX4_133/Y gnd NAND2X1_765/A vdd NAND2X1
XNAND2X1_752 INVX1_531/Y BUFX4_203/Y gnd NAND3X1_219/C vdd NAND2X1
XNAND2X1_774 NAND2X1_774/A NAND2X1_774/B gnd NAND2X1_22/B vdd NAND2X1
XNAND2X1_796 OAI21X1_94/Y BUFX4_131/Y gnd NAND2X1_798/A vdd NAND2X1
XNAND2X1_785 INVX1_553/Y BUFX4_205/Y gnd NAND3X1_241/C vdd NAND2X1
XFILL_43_0_1 gnd vdd FILL
XBUFX4_20 BUFX4_22/A gnd BUFX4_20/Y vdd BUFX4
XBUFX4_42 INVX8_8/Y gnd BUFX4_42/Y vdd BUFX4
XBUFX4_53 INVX8_3/Y gnd BUFX4_53/Y vdd BUFX4
XBUFX4_31 BUFX4_27/A gnd BUFX4_31/Y vdd BUFX4
XBUFX4_86 BUFX4_88/A gnd BUFX4_86/Y vdd BUFX4
XBUFX4_75 INVX8_1/Y gnd BUFX4_75/Y vdd BUFX4
XBUFX4_64 BUFX4_65/A gnd BUFX4_64/Y vdd BUFX4
XBUFX4_97 BUFX4_98/A gnd BUFX4_97/Y vdd BUFX4
XFILL_34_0_1 gnd vdd FILL
XFILL_10_1 gnd vdd FILL
XOR2X2_12 OR2X2_12/A OR2X2_12/B gnd OR2X2_12/Y vdd OR2X2
XOR2X2_23 OR2X2_23/A OR2X2_23/B gnd OR2X2_23/Y vdd OR2X2
XOR2X2_45 OR2X2_45/A OR2X2_45/B gnd OR2X2_45/Y vdd OR2X2
XOR2X2_34 OR2X2_34/A OR2X2_34/B gnd OR2X2_34/Y vdd OR2X2
XOR2X2_56 OR2X2_56/A OR2X2_56/B gnd OR2X2_56/Y vdd OR2X2
XOR2X2_67 OR2X2_67/A OR2X2_67/B gnd OR2X2_67/Y vdd OR2X2
XOR2X2_5 OR2X2_5/A OR2X2_5/B gnd OR2X2_5/Y vdd OR2X2
XXNOR2X1_7 AOI21X1_6/Y XNOR2X1_7/B gnd XNOR2X1_7/Y vdd XNOR2X1
XFILL_25_0_1 gnd vdd FILL
XFILL_0_0_1 gnd vdd FILL
XINVX8_12 INVX8_12/A gnd INVX8_12/Y vdd INVX8
XINVX1_7 gnd gnd INVX1_7/Y vdd INVX1
XOAI21X1_510 NOR2X1_149/Y OAI21X1_463/A OAI22X1_15/B gnd AOI21X1_96/B vdd OAI21X1
XOAI21X1_532 MUX2X1_40/S AOI21X1_93/Y NAND2X1_490/Y gnd OAI21X1_576/B vdd OAI21X1
XOAI21X1_521 OAI22X1_30/A OR2X2_30/Y OAI21X1_521/C gnd NOR2X1_250/A vdd OAI21X1
XOAI21X1_543 BUFX4_216/Y OAI21X1_543/B NAND2X1_497/Y gnd MUX2X1_34/A vdd OAI21X1
XOAI21X1_554 NOR2X1_253/B NOR2X1_296/A AOI21X1_114/Y gnd INVX2_61/A vdd OAI21X1
XOAI21X1_565 NOR2X1_281/A OAI21X1_565/B AOI21X1_117/Y gnd OAI21X1_565/Y vdd OAI21X1
XOAI21X1_587 OAI22X1_30/A OAI21X1_779/A AOI21X1_127/Y gnd OR2X2_35/A vdd OAI21X1
XOAI21X1_576 BUFX4_216/Y OAI21X1_576/B NAND2X1_521/Y gnd NOR2X1_329/B vdd OAI21X1
XOAI21X1_598 NOR2X1_103/Y INVX8_12/Y AOI22X1_100/Y gnd OAI21X1_598/Y vdd OAI21X1
XINVX1_607 INVX1_607/A gnd INVX1_607/Y vdd INVX1
XINVX1_618 INVX1_545/A gnd INVX1_618/Y vdd INVX1
XINVX1_629 INVX1_556/A gnd INVX1_629/Y vdd INVX1
XDFFPOSX1_490 BUFX2_57/A CLKBUF1_45/Y NAND3X1_43/Y gnd vdd DFFPOSX1
XFILL_8_1_1 gnd vdd FILL
XNAND2X1_571 INVX1_413/A INVX1_328/A gnd AND2X2_62/A vdd NAND2X1
XNAND2X1_560 BUFX4_53/Y NOR2X1_328/Y gnd AOI21X1_163/B vdd NAND2X1
XNAND2X1_593 INVX2_18/A INVX1_422/A gnd NOR2X1_356/B vdd NAND2X1
XNAND2X1_582 NOR2X1_81/Y AND2X2_64/B gnd NOR2X1_356/A vdd NAND2X1
XFILL_16_0_1 gnd vdd FILL
XFILL_10_7_0 gnd vdd FILL
XOAI21X1_340 INVX1_352/Y NOR2X1_185/B AND2X2_21/A gnd OAI21X1_341/C vdd OAI21X1
XOAI21X1_351 INVX8_8/A MUX2X1_10/Y OAI21X1_351/C gnd OR2X2_19/A vdd OAI21X1
XOAI21X1_362 OAI21X1_410/A MUX2X1_47/S OAI21X1_362/C gnd MUX2X1_26/B vdd OAI21X1
XOAI21X1_373 INVX8_8/A OAI21X1_372/Y BUFX4_187/Y gnd AND2X2_27/B vdd OAI21X1
XAND2X2_7 AND2X2_5/Y AND2X2_7/B gnd AND2X2_8/B vdd AND2X2
XINVX1_415 OR2X2_39/B gnd INVX1_415/Y vdd INVX1
XINVX1_404 INVX1_404/A gnd INVX1_404/Y vdd INVX1
XOAI21X1_384 NOR2X1_160/B BUFX4_39/Y OAI21X1_631/C gnd INVX1_362/A vdd OAI21X1
XOAI21X1_395 BUFX4_41/Y MUX2X1_10/Y NAND2X1_381/Y gnd NAND2X1_416/B vdd OAI21X1
XINVX1_426 OR2X2_15/B gnd INVX1_426/Y vdd INVX1
XINVX1_459 INVX1_459/A gnd INVX1_459/Y vdd INVX1
XINVX1_437 BUFX4_268/Y gnd INVX1_437/Y vdd INVX1
XINVX1_448 OR2X2_57/B gnd INVX1_448/Y vdd INVX1
XNAND2X1_390 INVX8_3/A NAND2X1_482/B gnd OAI21X1_406/C vdd NAND2X1
XMUX2X1_19 MUX2X1_19/A MUX2X1_19/B INVX8_5/A gnd MUX2X1_19/Y vdd MUX2X1
XFILL_42_6_0 gnd vdd FILL
XAOI22X1_2 INVX2_3/Y BUFX2_91/A INVX2_2/A AOI22X1_2/D gnd NAND3X1_2/A vdd AOI22X1